$# LS-DYNA Keyword file created by LS-PrePost(R) V4.7.1 - 23Nov2019
$# Created on Apr-20-2021 (23:44:32)
$
$
$
$-------------------------------------------------------------------------------
$
$ DISCLAIMER:
$
$ This is a part of some standard models that LSTC has developed to serve
$ as "Learning Aids". We hope that our Worldwide Users will find them to
$ be enormously useful in improving their CAE methodology and learning the
$ inner intricacies of the way LS-Dyna handles various modeling techniques.
$
$ Please understand that LSTC takes no responsibility for errors in these
$ models/files and conclusions drawn through their application during the
$ Product Development phase. The user must verify his own results.
$
$ These models are integral parts of our continued efforts in giving back
$ our valued customers the very best.
$
$ 
$ Sarba Guha
$ (LSTC, Troy Office, Michigan, USA)
$
$ Date: 29th October, 2008
$
$-------------------------------------------------------------------------------
$
$
$
*KEYWORD
$
$
$
*TITLE
$
$#                                                                         title
Driver-Belt Template With Load_Limiting_Pyro_Retractor
$
$
$
$ This deck works together with:
$
$ VehicleEnvironment.TemplateWithPitchDropYawPulse.k
$ LSTC.50thRigidFE.PostFeb28.WithBeltVehicleModelTemplate.k
$
$
$
$ Prepared By:
$
$ Sarba Guha
$ LSTC, Troy Office, Michigan, USA
$
$ Date: 29th October, 2008
$
$
$
*DATABASE_SBTOUT
$#      dt    binary      lcur     ioopt     
      0.08         1         0         1
$
$
$
$$$$$$$$$$$$$$$ Begin CONTACT Block $$$$$$$$$$$$$$$$$$$$$$$$$$$$$$$$$$$$$$$$$$$$
$
$
$
*CONTACT_AUTOMATIC_NODES_TO_SURFACE
$#     cid                                                                 title
$
$#    ssid      msid     sstyp     mstyp    sboxid    mboxid       spr       mpr
   2060000   1000011         2         2         0         0         0         0
$
$#      fs        fd        dc        vc       vdc    penchk        bt        dt
       0.8       0.8       0.0       0.0       0.0         0       0.01.00000E20
$
$#     sfs       sfm       sst       mst      sfst      sfmt       fsf       vsf
       1.0       1.0       0.0       0.0       1.0       1.0       1.0       1.0
$
$
$
*SET_PART_LIST
$
$ seatbelt shell elements
$#     sid       da1       da2       da3       da4    solver      
   2060000       0.0       0.0       0.0       0.0MECH
$#    pid1      pid2      pid3      pid4      pid5      pid6      pid7      pid8
   2060000         0         0         0         0         0         0         0
$
$
$
*CONTACT_AUTOMATIC_NODES_TO_SURFACE
$#     cid                                                                 title
$
$#    ssid      msid     sstyp     mstyp    sboxid    mboxid       spr       mpr
   2060000   1000012         2         2         0         0         0         0
$
$#      fs        fd        dc        vc       vdc    penchk        bt        dt
       0.8       0.8       0.0       0.0       0.0         0       0.01.00000E20
$
$#     sfs       sfm       sst       mst      sfst      sfmt       fsf       vsf
       1.0       1.0       0.0       0.0       1.0       1.0       1.0       1.0
$
$
$
$$$$$$$$$$$$$$$ End CONTACT Block $$$$$$$$$$$$$$$$$$$$$$$$$$$$$$$$$$$$$$$$$$$$$$
$
$
$
$
$************** Begin FE_FABRIC SEATBELT Block *********************************
$
$
$
*PART
$
$#                                                                         title
SHOULDER_LAP_PART_60000
$
$#     pid     secid       mid     eosid      hgid      grav    adpopt      tmid
   2060000   2060000   2060000         0         0         0         0         0
$
$
$
$ The *SECTION_SHELL Card for Part-2060000 follows.
$
$ NOTE: It is VERY IMPORTANT to understand the following *SECTION_SHELL Card.
$
$ The main cards are further down below but for ease of understanding, I am
$ repeating the lines here, commenting them out.
$
$
$$$*SECTION_SHELL
$
$  2060000         9     0.000         0         0         0         1
$
$     1.20      1.20      1.20      1.20
$
$  (Angle)   (Angle)
$     90.0       0.0
$
$
$ Also read 29.28 in the LS971 Manual for column headers.
$
$
$       Here "icomp=1" in field-7 of the first card.
$       That allows us to define the "third card" defining "Fabric Angles".
$       The Angle b1=90 degrees, "switches" the "a-axis" of the FE-Belt Fabric.
$
$       How to determine the "a-axis" in LSPP is described in the notes just
$       before Load Curve ID 2060001.
$
$       It can be viewed in LSPP that "as modeled", the "a-axis" points in
$       the "lateral direction" of the belt. That is why the "switch is needed.
$
$       After switching, the "a" axis points in the "longitudinal" direction.
$
$       The Angle b2=0 degrees, keeps the "b" axis in the "lateral" direction
$       of the FE-Belt.
$
$       This is also tied up with the option "aopt=0" in the following
$       *MAT_FABRIC (*MAT_034) card, in which LCs 2060001 & 2060002 are used.
$
$       A Very Detailed explanation is given just after Load Curve 2060002 .
$
$       All this is very important because Fabric Load Curves 2060001 & 2060002
$       are applied in the "longitudinal" and "lateral" directions of the belt
$       respectively. Lack of understanding can cause them to be applied wrong!!
$
$       Please go thoroughly through all explanations given before and after
$       Load Curves 2060001 and 2060002.
$
$
$ The actual Section_Shell Card is the following:
$
*SECTION_SHELL
$
$#   secid    elform      shrf       nip     propt   qr/irid     icomp     setyp
   2060000         9       0.0         0       1.0         0         1         1
$
$#      t1        t2        t3        t4      nloc     marea      idof    edgset
       1.2       1.2       1.2       1.2       0.0       0.0       0.0         0
$
$  (Angle)   (Angle)
$#      bi        bi        bi        bi        bi        bi        bi        bi
      90.0       0.0       0.0       0.0       0.0       0.0       0.0       0.0
$
$
$
$
*MAT_FABRIC
$
$     ea = young's modulus, longitidinal direction
$     eb = young's modulus, traverse direction
$     ec = young's modulus, normal direction
$    cse = 1 to eliminate compress stress
$
$ Also read Page-155 (MAT) in the LS971 Manual for column headers.
$
$#     mid        ro        ea        eb         -      prba      prab         -
   20600001.00000E-6       2.0       2.0       2.0       0.3       0.3       0.3
$
$#     gab         -         -       cse        el       prl    lratio      damp
     0.769     0.769     0.769       0.0       0.0       0.0       0.0       0.1
$
$     aopt    flc/x2    fac/x3       ela      lnrc      form     fvopt    tsrfac
$#    aopt       flc       fac       ela      lnrc      form     fvopt    tsrfac
       0.0       0.0       0.0       0.0       0.0         4         0       0.0
$
$#  unused    rgbrth     a0ref        a1        a2        a3        x0        x1
                 0.0         0       1.0       0.0       0.0       0.0       0.0
$
$#      v1        v2        v3         -         -         -      beta    isrefg
       0.0       0.0       0.0       0.0       0.0       0.0       0.0         0
$
$
$ "lca" is the Load Curve applied in the "longitudinal" direction of the belt.
$ "lcb" is the Load Curve applied in the "lateral" direction of the belt.
$ They are connected to "aopt=0", "form=4" and the above *SECTION_SHELL.
$
$ For a complete understanding read the notes above *SECTION_SHELL and the
$ extensive notes before and after Load_Curves with ID 2060001 & 2060002 .
$
$#     lca       lcb      lcab      lcua      lcub     lcuab        rl  
   2060001   2060002         0         0         0         0       0.0
$
$
$
$************** End FE_FABRIC SEATBELT Block ***********************************
$
$
$
$
$
$
$
$ The following part is the "Segment Belt" connection from one edge of the
$ FE Lap Belt to the Anchor at Floor Pan.
$
$ The Section and Material Properties follow immediately.
$
$ The strength of the belt is characterized by the Loading and Unloading curves
$ "llcid" and "ulcid" respectively, in *Mat_Seatbelt.
$
$ "lmin=1.000" does not have any real use in this particular belt segment.
$ However, it has "tremendous" significance in some of the other belt segments
$ which go around "D-rings" and "Buckles". That is explained in those parts.
$
$
$
*PART
$
$ This Part is for the Belt Segment from FE-Lapbelt to Floor-Anchor.
$ It is a "single line" or "segment belt" (not Fabric FE belt).
$
$#                                                                         title
Belt_From_Lap_To_Anchor
$
$#     pid     secid       mid     eosid      hgid      grav    adpopt      tmid
   2065000   2065000   2065000         0         0         0         0         0
$
$
$
*SECTION_SEATBELT
$
$#   secid      area     thick     
   2065000       0.0       0.0
$
$
$
*MAT_SEATBELT
$
$ This is only for "single line" or "segment belts" (not Fabric FE belts).
$
$ Also read Page-797 (MAT) in the LS971 Manual for column header explanation.
$
$ mpul  = Mass per Unit Length, kg/mm
$ llcid = Loading Curve Number for Belt "Force vs. Strain" Properties
$ ulcid = Unloading Curve Number for Belt "Force vs. Strain" Properties
$
$ lmin  = Minimum allowable length for belt elements.
$         This is really important for belt segments passing through
$         D-Rings and Buckles.
$         Since this particular Belt Part is from FE-Lapbelt to Floor-Anchor,
$         "lmin" is not important here.
$
$  2065000 8.0000E-5   2065000   2065000     1.000
$#     mid      mpul     llcid     ulcid      lmin       cse      damp         e
   20650008.00000E-5   2065000   2065000       3.0       0.0       0.0       0.0
$
$
$
$
$
$
$$$$$$$$$$$$$$$ Begin BEAM AT ANCHOR Block $$$$$$$$$$$$$$$$$$$$$$$$$$$$$$$$$$$$$
$
$
$
*PART
$
$#                                                                         title
Beam_At_Belt_Anchor
$
$#     pid     secid       mid     eosid      hgid      grav    adpopt      tmid
   2065001   2065001   2010000         0         0         0         0         0
$
$
$
*SECTION_BEAM
$
$#   secid    elform      shrf   qr/irid       cst     scoor       nsm     naupd
   2065001         1       1.0         1         1       0.0       0.0         0
$
$#     ts1       ts2       tt1       tt2     nsloc     ntloc     
       2.0       2.0       0.0       0.0       0.0       0.0
$
$
$
*MAT_RIGID
$
$ cmo  = 1 constraints applied in global directions
$ con1 = 7 constrained in x, y, z displacement, 4 constrain y & x dis.
$ con2 = 7 constrained in x, y, z rotations,    6 constrain x & z rot.
$
$#     mid        ro         e        pr         n    couple         m     alias
   20100007.82000E-6     203.0       0.3       0.0       0.0       0.0          
$
$#     cmo      con1      con2    
       0.0         0         0
$
$lco or a1        a2        a3        v1        v2        v3
$#lco or a1        a2        a3        v1        v2        v3  
       0.0       0.0       0.0       0.0       0.0       0.0
$
$
$
$$$$$$$$$$$$$$$ End BEAM AT ANCHOR Block $$$$$$$$$$$$$$$$$$$$$$$$$$$$$$$$$$$$$$$
$
$
$
$************** Begin SEGMENT BELT THROUGH BUCKLE Block ************************
$
$
$
*PART
$
$ This Part is for the Belt Segment going through the Buckle.
$ It is a "single line" or "segment belt" (not Fabric FE belt).
$
$#                                                                         title
Belt_Through_Buckle
$
$#     pid     secid       mid     eosid      hgid      grav    adpopt      tmid
   2066000   2065000   2067000         0         0         0         0         0
$
$
$
$ The Seat_Belt Material Description follows.
$
$ The same material is shared between the "Belt Through Buckle" (PID 2066000) &
$ the "Belt From Retractor Through D-Ring to Shoulder" (PID 2067000).
$
$$$*MAT_SEATBELT
$
$
$ This is only for "single line" or "segment belts" (not Fabric FE belts).
$
$ Also read Page-797 (MAT) in the LS971 Manual for column header explanation.
$
$ mpul  = Mass per Unit Length, kg/mm
$ llcid = Loading Curve Number for Belt "Force vs. Strain" Properties
$ ulcid = Unloading Curve Number for Belt "Force vs. Strain" Properties
$
$ lmin  = Minimum allowable length for belt elements.
$         It is VERY IMPORTANT to understand this.
$
$         The "minimum length" is really important for belt segments passing
$         through D-Rings and Buckles.
$
$         When the Belt passes from one side of the Buckle or D-Ring to the
$         other, Dyna might want to "reduce the modeled segment length" in order
$         to do the operation efficiently.
$
$         The advantage for Dyna is that the "lower the length", the easier it
$         becomes computationally to do the job. However, the "disadvantage for
$         us" in the matter is that the lower the length, the lower becomes the
$         Time-Step of computation during that time.
$
$         Now, a "balance" has to be struck. That is why, if we "specify a
$         minimum length", Dyna will not take the belt element length below it.
$
$         The "minimum length" is chosen purely through experience.
$
$         It is my experience that a minimum length of 1-mm is "required" by
$         Dyna to do the job efficiently. I have also found it unnecessary to
$         specify a length any lower than that.
$
$
$
$ ADDITIONAL NOTE ON TIME_STEP (Very Important):
$
$ The process of passing a belt through a D-Ring or a Buckle often "requires"
$ Dyna to have a smaller Time_Step than usual. Therefore, it is NOT a good idea
$ to try running the job with Seatbelts using Fixed Time_Step with Mass Scaling.
$
$ Therefore, it is best to use "Natural Time_Step" and let Dyna fluctuate the
$ TS as is necessary at any given point of time. Even if we do use some kind of
$ Mass Scaling, we should not try to scale beyond 1-microsecond Time_Step.
$
$ I have done that by using the "Natural Time Step" in *CONTROL_TIMESTEP of the
$ "Dummy Model" and the "Vehicle Environment Model".
$ Please search for this card inside the above models and verify.
$
$
*MAT_SEATBELT
$
$  2067000 8.0000E-5   2065002   2065002  1.000000
$#     mid      mpul     llcid     ulcid      lmin       cse      damp         e
   20670008.00000E-5   2065002   2065002       3.0       0.0       0.0       0.0
$
$
$
$************** End SEGMENT BELT THROUGH BUCKLE Block **************************
$
$
$
$
$
$
*PART
$
$#                                                                         title
Belt_Anchor_Beam
$
$#     pid     secid       mid     eosid      hgid      grav    adpopt      tmid
   2066001   2066001   2010000         0         0         0         0         0
$
$
$
*SECTION_BEAM
$
$#   secid    elform      shrf   qr/irid       cst     scoor       nsm     naupd
   2066001         1       1.0         1         1       0.0       0.0         0
$
$#     ts1       ts2       tt1       tt2     nsloc     ntloc     
       2.0       2.0       0.0       0.0       0.0       0.0
$
$
$
$
$
$
$$$$$$$$$$ Begin SEGMENT BELT FROM RETRACTOR TO DRING TO SHOULDER Block $$$$$$$$
$
$
$
*PART
$
$#                                                                         title
Belt_From_Retractor_Through_Dring_To_Shoulder_FE_Belt
$
$#     pid     secid       mid     eosid      hgid      grav    adpopt      tmid
   2067000   2065000   2067000         0         0         0         0         0
$
$
$ NOTE: For description of Material-ID 2067000 see above. It is very important
$       to understand the "*MAT_SEATBELT" description.
$
$
$
$$$$$$$$$$ End SEGMENT BELT FROM RETRACTOR TO DRING TO SHOULDER Block $$$$$$$$$$
$
$
$
$************** Begin BEAM AT D-RING Block *************************************
$
$
$
*PART
$
$#                                                                         title
BEAM_PART_67001_AT_D-RING
$
$#     pid     secid       mid     eosid      hgid      grav    adpopt      tmid
   2067001   2067001   2010000         0         0         0         0         0
$
$
$
*SECTION_BEAM
$
$#   secid    elform      shrf   qr/irid       cst     scoor       nsm     naupd
   2067001         1       1.0         1         1       0.0       0.0         0
$
$#     ts1       ts2       tt1       tt2     nsloc     ntloc     
       2.0       2.0       0.0       0.0       0.0       0.0
$
$
$
$************** End BEAM AT D-RING Block ***************************************
$
$
$
$
$
$
*PART
$
$#                                                                         title
BEAM_PART_67002_RETRACTOR
$
$#     pid     secid       mid     eosid      hgid      grav    adpopt      tmid
   2067002   2067001   2010000         0         0         0         0         0
$
$
$
$
$
$
$$$$$$$$$$$$$$$ Begin SEGMENT BELT FROM BUCKLE TO GROUND Block $$$$$$$$$$$$$$$$$
$
$
$
*PART
$
$#                                                                         title
Buckle_To_Ground_Belt
$
$#     pid     secid       mid     eosid      hgid      grav    adpopt      tmid
   2067003   2065000   2067003         0         0         0         0         0
$
$
$
*MAT_SEATBELT
$
$ mpul = mass per unit length, kg/mm
$  2067003 8.0000E-5   2067006   2067006  1.000000
$#     mid      mpul     llcid     ulcid      lmin       cse      damp         e
   20670038.00000E-5   2067006   2067006       3.0       0.0       0.0       0.0
$
$
$
$$$$$$$$$$$$$$$ End SEGMENT BELT FROM BUCKLE TO GROUND Block $$$$$$$$$$$$$$$$$$$
$
$
$
$************** Begin FABRIC BELT PROPERTY CURVE Block *************************
$
$
$
$ Description of FABRIC BELT PROPERTY CURVE follows:
$
$
$ The following Curve is usually used for Belts modeled as "Beams".
$ They are sometimes called "Segmented Belts" also.
$ They appear as "single line elements" in the model.
$ The Curve for such Belts is "Force(Y) vs. Strain(X)".
$ Typically, these curves are generated by physical testing of actual seatbelts.
$
$ However, what do we do when we use "Finite Element Seatbelts"?
$ These belts are modeled as "2D Fabric Elements".
$ The Curves required for such Belts is "Stress(Y) vs. Strain(X)".
$ The question now is how do we use the same curve for 2D Fabric Seatbelts?
$ 
$ We do it by "converting" the Force(Y) to Stress(Y).
$ This is done by dividing the Force(Y) by the Cross-Sectional Area of the Belt.
$ Typically, the Width of the Belt is 46-mm and the Thickness 1.2-mm .
$ Therefore, the Section Area = 46.0x1.2 mm**2 = 55.2 mm**2 .
$
$ Note that 1/55.2 = 1.8120E-02
$ Because the Force-Unit of the Curve as given is in Newtons (see note below)
$ and our Model Force-Units are in kilo-Newtons, we have to convert that too.
$ Therefore, the factor now becomes 1.8120E-05 .
$
$ Now we simply use the above factor as the "Y-Scale Factor" in the Curve.
$ 
$ This gives us the advantage of not having to alter the actual curve at all. 
$ We can still use the "measured curve" from physical seat-belt component tests.
$
$
$
$
$
$
$
$ The following curve is for the Stresses in the Lateral-direction of the
$ 2D-Fabric Seatbelt.
$
$ Typically, the strength of the Fabric in the Lateral-direction is only
$ "half" that of the longitudinal direction.
$
$ Therefore, we use the exact same curve as the one above, except that we
$ use an additional factor of 0.5 for the Y-Scale Factor.
$ Note that 0.5 x 1.8120E-5 = 9.0600E-06 .
$ This is the Y-Scale Factor that we use below.
$
$
$
$ NOTE: Please understand how the "Longitudinal" and the "Lateral" directions
$       of the Seatbelt are defined. This is important because the strength
$       of the Belt in the Lateral Direction (Curve 2060002) is "half" that
$       of the Belt in the Longitudinal Direction (Curve 2060001).
$
$       To find out the "directions" as modeled, do the following:
$
$       a) Read in this model into LSPP.
$       b) Go to  Page 2 ---> ElEdit .
$       c) On the "Element" side, check the diamond for "Direction".
$
$       As soon as you do that, "arrows" should be appearing in every
$       Shell Element of the Seat-Belt. These arrows show the "modeled"
$       "Longitudinal Direction" of the Belt Elements. Zoom-in to see them.
$       The "arrows" are more easily visible in "wire-frame" mode.
$
$       It is also important to know what "AOPT" we have chosen in *MAT_FABRIC
$       (*MAT_034) of the FE Belt Material and what FORM we have chosen.
$       Please check *MAT_FABRIC with ID-2060000, which is for this FE-Belt.
$       In the first-column of the third line you can see "aopt=0" and in the
$       sixth-column of the third line it says "form=4".
$
$       Now, please read Note-5 under *MAT_FABRIC (*MAT034) to fully understand.
$       This is on Page-160 of Volume-II of the LS971 Manual.
$
$       Based on Note-5, it means that the arrows in LSPP point to the
$       "main axis" of the Fabric (also known as the "a-axis").
$
$       Now you can see that for this model, the arrows point in the
$       "Lateral Direction" of the Seatbelt. If we kept it this way,
$       Load Curve 2060001 would be applied in the lateral direction and
$       Load Curve 2060002 would be applied to the longitudinal direction
$       of the belt. That would be wrong!!
$
$       So we have to "flip" the direction.
$
$       At this point, go back to Note-5 of *MAT_FABRIC (*MAT034).
$       It says that for FORM=4, "....the fiber directions are not assumed
$       orthogonal and must be specified using the ICOMP=1 option on
$       *SECTION_SHELL. Offset angles should be input into the B1 and the B2
$       fields used normally for integration points 1 and 2".
$
$       So we are going to use *SECTION_SHELL to "flip" the direction.
$
$       Check Section_Shell ID 2060000, which is being used for the FE Seatbelt.
$       In the First Card we have set "icomp=1" (field 70).
$       That allows us to insert a third line. This line contains the "Angles"
$       of the "a-axis" and the "b-axis" (or directions) of the Fabric.
$
$       We have input an Angle of 90-degrees for B1 in *SECTION_SHELL .
$       This "switches" the "a-axis" direction.
$       Now LC 2060001 is applied in the Longitudinal Direction of the belt.
$
$       We have input an Angle of 0-degrees for B2.
$       That keeps the "b-axis" (which is the "lateral direction") the same.
$       Now LC 2060002 is applied in the Lateral Direction of the belt.
$
$       Hopefully this very important point has been well understood by users.
$
$
$
$************** End FABRIC BELT PROPERTY CURVE Block ***************************
$
$
$
$
$
$
$ The following function is for the "Segment Belt" connection from one edge
$ of the FE Lap Belt to the Anchor at Floor Pan. A good portion of this part of
$ the belt in an actual car is "doubled and stitched". That is why I have made
$ it "twice" the strength, using a Y-scale factor of "2". If you feel that to
$ be unjustified, make the scale factor "1" again.
$
$ To turn Newtons to kN,we have an additional scale factor of 0.001; therefore
$ finally sfo=0.002 .
$
$ It is used for Segment Belt Part 2065000 (can be viewed in LSPP).
$
$
$
$
$ The following function is for the "Segment Belt" from the Retractor through
$ the D-Ring to the FE Shoulder Belt and then the Segment from the other end
$ of the Shoulder FE Belt, through the Buckle to the FE Lap Belt.
$
$ To turn Newtons to kN,we have an additional scale factor of 0.001 .
$
$ It is used for Segment Belt Parts 2066000 & 2067000 (can be viewed in LSPP).
$
$
$
$
$
$
$
$$$$$$$$$$$$$$$ Begin RETRACTOR PROPERTY CURVE Block $$$$$$$$$$$$$$$$$$$$$$$$$$$
$
$
$
$
$
$
$$$$$$$$$$$$$$$ End RETRACTOR PROPERTY CURVE Block $$$$$$$$$$$$$$$$$$$$$$$$$$$$$
$
$
$
$************** Begin PYRO-PRETENSIONER PULL CURVE Block ***********************
$
$
$
$
$
$
$************** End PYRO-PRETENSIONER PULL CURVE Block *************************
$
$
$
$
$
$
$ The following is the "Segment Belt from Buckle to Ground" Load Curve.
$
*DEFINE_CURVE
$
$
$#    lcid      sidr       sfa       sfo      offa      offo    dattyp     lcint
   2060001         0       1.01.81200E-5       0.0       0.0         0         0
$
$
$ The following curve should be generated from Seatbelt Component Tests.
$ This should be in the units "Force(Y) vs. Strain(X)".
$ The Force should be measured "along the main direction of the belt".
$
$ A "simplistic, typical curve" is being shown here.
$ This might serve your temporary purpose.
$ However, please use your own curve from seatbelt component tests.
$
$ The Force Units are in "NEWTONS" in this Curve.
$ Since our Model Force Units are in kN, we have to convert that too and that
$ has been taken care of in the Y-Scale Factor above.
$
$            (Strain)          (Newtons)
$
$#                a1                  o1  
                 0.0                 0.0
                 0.1             10100.0
*DEFINE_CURVE
$#    lcid      sidr       sfa       sfo      offa      offo    dattyp     lcint
   2060002         0       1.09.06000E-6       0.0       0.0         0         0
$
$            (Strain)          (Newtons)
$
$#                a1                  o1  
                 0.0                 0.0
                 0.1             10100.0
*DEFINE_CURVE
$
$#    lcid      sidr       sfa       sfo      offa      offo    dattyp     lcint
   2065000         0       1.0     0.002       0.0       0.0         0         0
$
$            (Strain)          (Newtons)
$
$#                a1                  o1  
                 0.0                 0.0
                 0.1             10100.0
*DEFINE_CURVE
$#    lcid      sidr       sfa       sfo      offa      offo    dattyp     lcint
   2065002         0       1.0     0.001       0.0       0.0         0         0
$
$            (Strain)          (Newtons)
$
$#                a1                  o1  
                 0.0                 0.0
                 0.1             10100.0
*DEFINE_CURVE
$
$ Retractor Force (kN) vs Payout (mm)
$
$ sfa=1000.0 changes a payout of meters to millimeters.
$ sfo=0.001 changes the Force from Newtons to kilo-Newtons.
$
$ It is used for Retractor Part 2067111 .
$
$#    lcid      sidr       sfa       sfo      offa      offo    dattyp     lcint
   2067000         0    1000.0&bforc           0.0       0.0         0         0
$
$ The following curve is for a Retractor with Load Limited to 3250-Newtons.
$
$ Retractor Force(Y) vs. Payout(X)
$
$             Payout               Force
$           (meters)           (Newtons)
$
$#                a1                  o1  
                 0.0                 0.0
               0.025              3250.0
                0.45              3250.0
*DEFINE_CURVE
$
$ Retractor Force (kN) vs Payout (mm) UNLOADING
$
$ sfa=1000.0 changes a payout of meters to millimeters.
$ sfo=0.001 changes the Force from Newtons to kilo-Newtons.
$
$ It is used for Retractor Part 2067111 .
$
$#    lcid      sidr       sfa       sfo      offa      offo    dattyp     lcint
   2067001         0    1000.0       0.1       0.0       0.0         0         0
$
$ The following curve is for a Retractor with Load Limited to 3250-Newtons.
$
$ Retractor Force(Y) vs. Payout(X)
$
$             Payout               Force
$           (meters)           (Newtons)
$
$#                a1                  o1  
                 0.0                 0.0
               0.001             10000.0
*DEFINE_CURVE
$
$ Pyro Pretensioner Curve
$
$#    lcid      sidr       sfa       sfo      offa      offo    dattyp     lcint
   2067002         0       1.0       1.0       0.0       0.0         0         0
$
$#                a1                  o1  
                 0.0                 0.0
                10.0                90.0
               200.0                90.0
*DEFINE_CURVE
$
$#    lcid      sidr       sfa       sfo      offa      offo    dattyp     lcint
   2067006         0       1.0       1.0       0.0       0.0         0         0
$
$#                a1                  o1  
                 0.0                 0.0
                0.02                50.0
                 0.1               250.0
$
$
$
$$$$$$$$$$$$$$$ End SET_NODE Block $$$$$$$$$$$$$$$$$$$$$$$$$$$$$$$$$$$$$$$$$$$$$
$
$
$
$************** Begin CONSTRAINED "EXTRA_NODES" AND "RIGID_BODY" Block *********
$
$
$
*CONSTRAINED_EXTRA_NODES_NODE
$#     pid       nid     iflag     
   2066001   2067507         0
$
$
$
*CONSTRAINED_NODAL_RIGID_BODY
$#     pid       cid      nsid     pnode      iprt    drflag    rrflag      
   2065000         0   2065000         0         0         0         0
$
$
$
$
$
$
$$$$$$$$$$$$$$$ Begin SET_NODE Block $$$$$$$$$$$$$$$$$$$$$$$$$$$$$$$$$$$$$$$$$$$
$
$
$
*SET_NODE_LIST
$#     sid       da1       da2       da3       da4    solver      
   2065000       0.0       0.0       0.0       0.0MECH
$
$#    nid1      nid2      nid3      nid4      nid5      nid6      nid7      nid8
   2060070   2060141   2060212   2060283   2060354         0         0         0
$
$
$
*CONSTRAINED_NODAL_RIGID_BODY
$#     pid       cid      nsid     pnode      iprt    drflag    rrflag      
   2067000         0   2067000         0         0         0         0
$
$
$
*SET_NODE_LIST
$#     sid       da1       da2       da3       da4    solver      
   2067000       0.0       0.0       0.0       0.0MECH
$
$#    nid1      nid2      nid3      nid4      nid5      nid6      nid7      nid8
   2060421   2060488   2060555   2060622   2060689         0         0         0
$
$
$
*CONSTRAINED_NODAL_RIGID_BODY
$#     pid       cid      nsid     pnode      iprt    drflag    rrflag      
   2067001         0   2067001         0         0         0         0
$
$
$
*SET_NODE_LIST
$#     sid       da1       da2       da3       da4    solver      
   2067001       0.0       0.0       0.0       0.0MECH
$
$#    nid1      nid2      nid3      nid4      nid5      nid6      nid7      nid8
   2060000   2060071   2060142   2060213   2060284         0         0         0
$
$
$
*CONSTRAINED_NODAL_RIGID_BODY
$#     pid       cid      nsid     pnode      iprt    drflag    rrflag      
   2067002         0   2067002         0         0         0         0
$
$
$
*SET_NODE_LIST
$#     sid       da1       da2       da3       da4    solver      
   2067002       0.0       0.0       0.0       0.0MECH
$
$#    nid1      nid2      nid3      nid4      nid5      nid6      nid7      nid8
   2060355   2060422   2060489   2060556   2060623         0         0         0
$
$
$
*CONSTRAINED_RIGID_BODIES
$
$#    pidm      pids     iflag     
   3000099   2065001         0
   3000099   2066001         0
   3000086   2067001         0
   3000099   2067002         0
$
$
$
$************** End CONSTRAINED "EXTRA_NODES" AND "RIGID_BODY" Block ***********
$
$
$
$
$
$
*ELEMENT_SHELL
$
$#   eid     pid      n1      n2      n3      n4      n5      n6      n7      n8
 2060000 2060000 2060000 2060071 2060003 2060003       0       0       0       0
 2060001 2060000 2060074 2060003 2060071 2060071       0       0       0       0
 2060006 2060000 2060003 2060074 2060004 2060004       0       0       0       0
 2060007 2060000 2060075 2060004 2060074 2060074       0       0       0       0
 2060008 2060000 2060004 2060075 2060005 2060005       0       0       0       0
 2060009 2060000 2060076 2060005 2060075 2060075       0       0       0       0
 2060010 2060000 2060005 2060076 2060006 2060006       0       0       0       0
 2060011 2060000 2060077 2060006 2060076 2060076       0       0       0       0
 2060012 2060000 2060006 2060077 2060007 2060007       0       0       0       0
 2060013 2060000 2060078 2060007 2060077 2060077       0       0       0       0
 2060014 2060000 2060007 2060078 2060008 2060008       0       0       0       0
 2060015 2060000 2060079 2060008 2060078 2060078       0       0       0       0
 2060016 2060000 2060008 2060079 2060009 2060009       0       0       0       0
 2060017 2060000 2060080 2060009 2060079 2060079       0       0       0       0
 2060018 2060000 2060009 2060080 2060010 2060010       0       0       0       0
 2060019 2060000 2060081 2060010 2060080 2060080       0       0       0       0
 2060020 2060000 2060010 2060081 2060011 2060011       0       0       0       0
 2060021 2060000 2060082 2060011 2060081 2060081       0       0       0       0
 2060022 2060000 2060011 2060082 2060012 2060012       0       0       0       0
 2060023 2060000 2060083 2060012 2060082 2060082       0       0       0       0
$ ... 1036 like lines cut
$
$
$
*ELEMENT_BEAM
$
$#   eid     pid      n1      n2      n3     rt1     rr1     rt2     rr2   local
 2065016 2065001 2065000 2065017 2065007       0       0       0       0       2
 2066016 2066001 2067515 2067516 2067500       0       0       0       0       2
 2067113 2067001 2067115 2067114 2067050       0       0       0       0       2
 2067114 2067002 2067117 2067116 2067000       0       0       0       0       2
$
$
$
$
$
$
$$$$$$$$$$$$$$$ Begin ELEMENT_SEATBELT ("Single Line" Type) Block $$$$$$$$$$$$$$
$
$
$
*ELEMENT_SEATBELT
$$$$$$$$$$$$$$$ Begin ELEMENT_SEATBELT ("Single Line" Type) Block $$$$$$$$$$$$$$
$#   eid     pid     n 1     n 2   sbrid            slen     n 3     n 4   
 2065000 2065000 2065002 2065004       0             0.0       0       0
 2065002 2065000 2065004 2065006       0             0.0       0       0
 2065004 2065000 2065006 2065008       0             0.0       0       0
 2065006 2065000 2065008 2065010       0             0.0       0       0
 2065008 2065000 2065010 2065012       0             0.0       0       0
 2065010 2065000 2065012 2065014       0             0.0       0       0
 2065012 2065000 2065014 2065016       0             0.0       0       0
 2065014 2065000 2060555 2065002       0             0.0       0       0
 2065015 2065000 2065016 2065000       0             0.0       0       0
 2066000 2066000 2066008 2066000       0             0.0       0       0
 2066002 2066000 2066002 2066003       0             0.0       0       0
 2066003 2066000 2066003 2066004       0             0.0       0       0
 2066004 2066000 2066004 2066005       0             0.0       0       0
 2066005 2066000 2066005 2066006       0             0.0       0       0
 2066006 2066000 2066006 2066007       0             0.0       0       0
 2066007 2066000 2066007 2066008       0             0.0       0       0
 2066008 2066000 2066010 2066011       0             0.0       0       0
 2066009 2066000 2066011 2066012       0             0.0       0       0
 2066010 2066000 2066012 2066013       0             0.0       0       0
 2066011 2066000 2066013 2066014       0             0.0       0       0
 2066012 2066000 2066014 2066015       0             0.0       0       0
 2066014 2066000 2066009 2066010       0             0.0       0       0
 2066015 2066000 2066000 2066009       0             0.0       0       0
$ The following is the Seat_Belt Element that is "just outside" the Retractor.
$ This is referred to in the *Element_Seatbelt_Retractor card.
$ This Element is the "starting point" of the Retractor Definition.
$ Therefore, it is Very Important.
 2067000 2067000 2067554 2067001       0             0.0       0       0
 2067001 2067000 2067018 2067019       0             0.0       0       0
 2067003 2067000 2067020 2067021       0             0.0       0       0
 2067004 2067000 2067021 2067022       0             0.0       0       0
 2067005 2067000 2067022 2067023       0             0.0       0       0
 2067006 2067000 2067023 2067024       0             0.0       0       0
 2067007 2067000 2067024 2067025       0             0.0       0       0
 2067008 2067000 2067025 2067026       0             0.0       0       0
 2067009 2067000 2067026 2067027       0             0.0       0       0
 2067010 2067000 2067027 2067028       0             0.0       0       0
 2067011 2067000 2067028 2067029       0             0.0       0       0
 2067012 2067000 2067029 2067030       0             0.0       0       0
 2067013 2067000 2067030 2067031       0             0.0       0       0
 2067014 2067000 2067017 2067018       0             0.0       0       0
 2067015 2067000 2067016 2067017       0             0.0       0       0
 2067016 2067000 2067015 2067016       0             0.0       0       0
 2067017 2067000 2067002 2067557       0             0.0       0       0
 2067018 2067000 2067003 2067561       0             0.0       0       0
 2067019 2067000 2067004 2067564       0             0.0       0       0
 2067020 2067000 2067005 2067567       0             0.0       0       0
$ ... 32 like lines cut
$ The following are the Seatbelt Elements INSIDE the Retractor.
$ The Element "just outside" is given here once again for understanding.
$ It is defined above and is "commented out" with a "$" sign here.
$2067000 2067000 2067554 2067001
$ Check *Element_Seatbelt (14.22 in the LS971 Manual)
$ The last entry (2067111) refers to the Retractor-ID, which is defined later.
$ Please observe how the "nodes" are connected to each other.
$ "N2" of one Element becomes the "N1" of the very next element.
$ "N2"(2067001) of Element 2067000 above becomes "N1" of Element 2067102 below.
$ It goes on like that.
$ All Elements Inside the Retractor are of "Zero Length".
$ Therefore, Nodes 2067103 to 2067113 below are "coincident".
$ You can check that in the *NODE block.
$ Ele-ID     PID      N1      N2   SBRID
$                                Retr-ID
 2067102 2067000 2067001 2067103 2067111             0.0       0       0
 2067103 2067000 2067103 2067104 2067111             0.0       0       0
 2067104 2067000 2067104 2067105 2067111             0.0       0       0
 2067105 2067000 2067105 2067106 2067111             0.0       0       0
 2067106 2067000 2067106 2067107 2067111             0.0       0       0
 2067107 2067000 2067107 2067108 2067111             0.0       0       0
 2067108 2067000 2067108 2067109 2067111             0.0       0       0
 2067109 2067000 2067109 2067110 2067111             0.0       0       0
 2067110 2067000 2067110 2067111 2067111             0.0       0       0
 2067111 2067000 2067111 2067112 2067111             0.0       0       0
 2067112 2067000 2067112 2067113 2067111             0.0       0       0
$ Note that there are many more Elements Inside the Retractor.
$ They are defined a little down the deck and continue from the last one above.
 2067500 2067003 2066017 2067501       0             0.0       0       0
 2067501 2067003 2067501 2067502       0             0.0       0       0
 2067502 2067003 2067502 2067503       0             0.0       0       0
 2067503 2067003 2067503 2067504       0             0.0       0       0
 2067504 2067003 2067504 2067505       0             0.0       0       0
 2067505 2067003 2067505 2067506       0             0.0       0       0
 2067506 2067003 2067506 2067507       0             0.0       0       0
 2067514 2067000 2067053 2067519       0             0.0       0       0
 2067518 2067000 2067519 2067522       0             0.0       0       0
 2067519 2067000 2067522 2067521       0             0.0       0       0
 2067520 2067000 2067521 2067523       0             0.0       0       0
 2067521 2067000 2067523 2060212       0             0.0       0       0
 2067522 2066000 2066002 2067545       0             0.0       0       0
 2067523 2066000 2067545 2067543       0             0.0       0       0
 2067524 2066000 2067543 2067544       0             0.0       0       0
 2067525 2066000 2067544 2067539       0             0.0       0       0
 2067526 2066000 2067539 2067542       0             0.0       0       0
 2067527 2066000 2067542 2067540       0             0.0       0       0
 2067528 2066000 2067540 2067541       0             0.0       0       0
 2067529 2066000 2067541 2060142       0             0.0       0       0
$ ... 41 like lines cut
$ The following are the additional Seatbelt Elements INSIDE the Retractor.
$ These are continuously linked to Element ID 2067112 (defined above).
$ Element 2067112 has been repeated here with "$" sign for easier understanding.
$2067112 2067000 2067112 2067113 2067111
$ Please observe how the "nodes" are connected to each other.
$ "N2" of one Element becomes the "N1" of the very next element.
$ "N2"(2067572) of Element 2067572 becomes "N1" of Element 2067573.
$ It goes on like that.
$ All Elements Inside the Retractor are of "Zero Length".
$ Therefore, Nodes 2067113 to 2067800 below are "coincident".
$ You can check that in the *NODE block.
$ Ele-ID     PID      N1      N2   SBRID
$                                Retr-ID
 2067572 2067000 2067113 2067572 2067111             0.0       0       0
 2067573 2067000 2067572 2067573 2067111             0.0       0       0
 2067574 2067000 2067573 2067574 2067111             0.0       0       0
 2067575 2067000 2067574 2067575 2067111             0.0       0       0
 2067576 2067000 2067575 2067576 2067111             0.0       0       0
 2067577 2067000 2067576 2067577 2067111             0.0       0       0
 2067578 2067000 2067577 2067578 2067111             0.0       0       0
 2067579 2067000 2067578 2067579 2067111             0.0       0       0
 2067580 2067000 2067579 2067580 2067111             0.0       0       0
 2067581 2067000 2067580 2067581 2067111             0.0       0       0
 2067582 2067000 2067581 2067582 2067111             0.0       0       0
 2067583 2067000 2067582 2067583 2067111             0.0       0       0
 2067584 2067000 2067583 2067584 2067111             0.0       0       0
 2067585 2067000 2067584 2067585 2067111             0.0       0       0
 2067586 2067000 2067585 2067586 2067111             0.0       0       0
 2067587 2067000 2067586 2067587 2067111             0.0       0       0
 2067588 2067000 2067587 2067588 2067111             0.0       0       0
 2067589 2067000 2067588 2067589 2067111             0.0       0       0
 2067590 2067000 2067589 2067590 2067111             0.0       0       0
 2067591 2067000 2067590 2067591 2067111             0.0       0       0
$ ... 209 like lines cut
$
$
$
$$$$$$$$$$$$$$$ End ELEMENT_SEATBELT ("Single Line" Type) Block $$$$$$$$$$$$$$$$
$
$
$
$************** Begin ELEMENT_SEATBELT_PRETENSIONER Block **********************
$
$
$
*ELEMENT_SEATBELT_PRETENSIONER
$
$ See 14.26 of the LS971 Manual.
$
$ sbprid = Seat Belt Pretensioner ID
$ sbprty = Seat Belt Pretensioner Type
$        = 5 for pyro pretensioner with limiting load for the pretensioner
$ sbsid  = Seat Belt Sensor ID
$
$ sbrid  = Seat Belt Retractor ID (the one being Pulled by the pretensioner)
$ time   = Time between Sensor Firing and Pretensioner acting
$ ptlcid = Load Curve for Pretensioner
$ lmtfrc = Limiting Force for Retractor (beyond which it will not pull)
$
$                     (sensor)
$#  sbprid    sbprty    sbsid1    sbsid2    sbsid3    sbsid4      
   2067000         5   2067001         0         0         0
$
$ See Sensor ID-2067001 under *ELEMENT_SEATBELT_SENSOR for Pretensioner_Fire Time.
$
$#   sbrid      time    ptlcid    lmtfrc      
   2067111       0.0   2067002&pmaxf    
$
$
$
$************** End ELEMENT_SEATBELT_PRETENSIONER Block ************************
$
$
$
$
$
$
*ELEMENT_SEATBELT_RETRACTOR
$
$ See 14.31 of the LS971 Manual.
$
$ sbrid   = Seat_Belt Retractor ID
$ sbrnid  = Seat_Belt Retractor Node (it is not on the Belt)
$ sbid    = First Belt Element ID that is just outside the retractor
$ sid1    = First Sensor ID (Referred to in *Element_Seatbelt_Sensor)
$
$ tdel    = Time Delay After Sensor Triggers
$ pull    = Amount of Pull-Out between time delay ending and retractor locking.
$           (It is a Length value).
$ llcid   = Load Curve for Loading (Force vs. Pull-Out)
$ ulcid   = Load Curve for Unloading (Force vs. Pull-Out)
$ lfed    = Fed Length
$
$                               (sensor)
$#   sbrid    sbrnid      sbid      sid1      sid2      sid3      sid4    
   2067111   2067117   2067000   2067000         0         0         0
$
$#    tdel      pull     llcid     ulcid      lfed    
       0.0       0.0   2067000   2067001      10.0
$
$
$ See Sensor ID-2067000 under *ELEMENT_SEATBELT_SENSOR for Retractor_Fire Time.
$
$
$ NOTE that in the above:
$
$ The "first element" just outside the Retractor is 2067000 (sbid).
$ To explain, this element, I am writing it out again below, commenting it out.
$
$    eid     pid      n1      n2
$2067000 2067000 2067554 2067001
$
$ Now it should be noted that Node-2067001 of the Element above is "coincident"
$ with Node-2067117 (sbrnid) of the Retractor. This is only at "Time-0".
$ To explain, I am writing out the two nodes again below, commenting it out.
$
$2067001    3327.0000000    -715.0000000     214.0000000
$2067117    3327.0000000    -715.0000000     214.0000000
$
$
$ It should be further noted that Node-2067117 is a part of a Beam Element.
$ I am writing out the Beam Element again below (commented out).
$
$    eid     pid      n1      n2      n3     rt1     rr1     rt2     rr2   local
$2067114 2067002 2067117 2067116 2067000
$
$ You can pull up Part-2067002 in LSPP to see what it is and where N-2067117 is.
$
$
$ I am also writing out Part-2067002 at this stage once again below.
$
$*PART
$      pid     secid       mid     eosid      hgid      grav    adpopt      tmid
$  2067002   2067001   2010000
$
$ It can be verified that Beam_Part-2067002 is defined as "Rigid" by checking
$ out "Mat_ID-2010000". I am writing it out below.
$
$*MAT_RIGID
$      mid        ro         e        pr         n    couple         m     alias
$  2010000 7.8200E-6 203.00000  0.300000     0.000     0.000     0.000
$    0.000         0         0
$    0.000     0.000     0.000     0.000     0.000     0.000
$
$ Because Part-2067002 is defined as "Rigid", it can be "merged" to the Vehicle.
$ That is done in the following way (actual card elsewhere in the deck).
$
$
$*CONSTRAINED_RIGID_BODIES
$  3000099   2067002
$
$ In the above, Part-3000099 is a Part of the Vehicle/Sled, which is also Rigid.
$ Part-3000099 will show up if all three decks are read into LSPP.
$
$
$ This is the "process" by which the Retractor is attached to the Vehicle.
$
$ It is also the way the Retractor functions. Node-2067001 is coincident with
$ Node-2067117 only at Time-0 or "as modeled". As the Retractor "pays out"
$ material from within it, different nodes become coincident with Node-2067001
$ at any given point of time.
$
$
$
$
$
$
$$$$$$$$$$$$$$$ Begin ELEMENT_SEATBELT_SENSOR Block $$$$$$$$$$$$$$$$$$$$$$$$$$$$
$
$
$
*ELEMENT_SEATBELT_SENSOR
$
$ See 14.37 in the LS971 Manual.
$
$ sbsid   = Seat Belt Sensor ID
$ sbstyp  = Seat Belt Sensor Type  -->  3=Time
$
$
$ The Following Sensor is used for Retractor Lockup.
$
$#   sbsid    sbstyp     sbsfl     
   2067000         3         0
$
$#    time    
       1.0
$
$
$
$ The Following Sensor is used for Pretensioner Firing.
$
$    sbsid    sbstyp
   2067001         3         0
$
$13.000000
&beltrg   
$
$
$
$$$$$$$$$$$$$$$ End ELEMENT_SEATBELT_SENSOR Block $$$$$$$$$$$$$$$$$$$$$$$$$$$$$$
$
$
$
$************** Begin ELEMENT_SEATBELT_SLIPRING Block **************************
$
$
$
$ SLIPRING description at D-Ring and Buckle.
$
$ In Dyna, a "SLIPRING" is used to define something like a "ring" through
$ which the Seatbelt slips through and "slides", as it it is pulled. Examples
$ of Sliprings in Automobiles are "D-Rings" and "Buckle Rings".
$
$ The "method" of defining them in Dyna would seem complicated at first. It
$ does take a little bit of time to understand it and for it to settle down
$ in the mind.
$
$ The actual lines are further down below but just to start the description,
$ I am repeating the lines here, commenting them out.
$
$ The D-Ring definition would be something like the following:
$
$*ELEMENT_SEATBELT_SLIPRING
$
$
$ Therefore, at the D-Ring, the following is the definition:
$
$   sbsrid     sbid1     sbid2        fc    sbrnid     ltime       fcs
$  2067112   2067053   2067033  0.150000   2067115      120.
$
$
$ See 14.41 in the LS971 Manual.
$
$ sbsrid = Slip Ring ID
$ sbid1  = Seatbelt 1 ID (see explanation below)
$ sbid2  = Seatbelt 2 ID (see explanation below)
$ fc     = Coulomb Dynamic Friction Coefficient at the Ring
$ sbrnid = Slip Ring Node (not on the Seatbelt)
$
$ Please read the other entries in the manual.
$
$ Note: At any Slipring, SBID1 and SBID2 are the two Seatbelt "Element Numbers"
$       on either side of the the Slipring (as modeled, at time zero).
$       Therefore, one has to look them up in LSPP, and then enter the IDs here.
$
$
$ Let me now explain in detail how the Seatbelt has been modeled at the D-Ring.
$
$ Read this deck into LSPP and zoom into the D-Ring area.
$ Now do the following in order:
$
$ a) Identify the last two Seatbelt Elments at the D-Ring.
$    Verify that they have IDs 2067053 and 2067033 respectively.
$
$ b) Identify the two nodes at the ends of each of these Belt Elements.
$    Confirm that Ele-2067053 is made up of Nodes 2067047 and 2067000.
$    Confirm that Ele-2067033 is made up of Nodes 2067046 and 2067000.
$    They meet at common Node-2067000, at the corner of the D-Ring.
$
$    For better understanding, I am giving the two Element definitions below:
$
$*ELEMENT_SEATBELT
$     eid     pid      n1      n2   sbrid
$ 2067033 2067000 2067046 2067000
$ 2067053 2067000 2067000 2067047
$
$ c) Observe that Node-2067115 (SBRNID) belongs to Beam Part 2067001.
$    Also note that Beam Part 2067001 is defined as RIGID.
$
$ d) Now observe that Node-2067115 and Node-2067000 are COINCIDENT.
$    This is VERY IMPORTANT because if they are not, the Slipring will not work.
$    Here, Node 2067000, is the "common node" between the two belt segments.
$
$    For better understanding, I am giving these two Nodes below:
$
$*NODE
$2067000    3319.0000000    -640.0000000    1144.0000000
$2067115    3319.0000000    -640.0000000    1144.0000000
$
$
$ e) It is through the above that Dyna understands the D-Ring and that the Belt
$    should slip through it from "one side to the other".
$    The "two Belt Segments" at the D-Ring have been defined and Dyna finds out
$    from the Element definitions what the "common node" is.
$    The "SBRNID" or the "Seat Belt Ring Node ID" has also been defined, which
$    of course has to be "coincident" with the two belt-segment common node.
$
$ f) Here it is necessary to point out that Beam Part 2067001 (to which SBRNID
$    is connected) is attached to the Body of the Vehicle or Sled. This is done
$    through the "Rigid Body Merge" of Parts 2067001 and 3000086.
$    Part 3000086 happens to be a part of the Vehicle/Sled and is Rigid.
$
$    The method of attachment of the two is shown below once again:
$
$*CONSTRAINED_RIGID_BODIES
$
$  3000086   2067001
$
$    Part-3000086 will show up as a vehicle part, if all three decks are read
$    into LSPP.
$
$ g) You have to note that "common node" 2067000 is coincident with node 2067115
$    only as modeled (time=0). As soon as the simulation begins and the belt
$    starts getting pulled in one direction or the other at the D-ring, the belt
$    starts slipping across and at each given point of time a different node on
$    the belt becomes coincident with SBRNID 2067115. That is why SBRNID had to
$    be defined; it is "fixed to the beam" that is attached to the body of the
$    vehicle and serves as the D-ring slip point.
$
$
$
$ Therefore, at the D-Ring, the following is the definition:
$
*ELEMENT_SEATBELT_SLIPRING
$
$#  sbsrid     sbid1     sbid2        fc    sbrnid     ltime       fcs      onid
   2067112   2067053   2067033      0.15   2067115     120.0       0.0         0
$
$
$
$
$ Similarly, the following is the definition of the Slipring at the Buckle.
$ Please go through it by following the above steps and verifying everything.
$
$
   2067113   2066000   2066015      0.15   2066017     120.0       0.0         0
$
$
$
$************** End ELEMENT_SEATBELT_SLIPRING Block ****************************
$
$
$
$
$
$
$
*NODE
$#   nid               x               y               z      tc      rc  
 2060000        3077.399       -152.6099        556.7459       0       0
 2060003        3074.525       -157.5114        567.1746       0       0
 2060004        3072.076       -162.6595        577.5323       0       0
 2060005        3069.627       -167.8075        587.8903       0       0
 2060006        3067.178       -172.9556        598.2483       0       0
 2060007        3064.729       -178.1037        608.6061       0       0
 2060008        3062.281       -183.2519        618.9639       0       0
 2060009        3059.833       -188.3999        629.3217       0       0
 2060010        3057.384        -193.548        639.6797       0       0
 2060011        3054.935       -198.6961        650.0374       0       0
 2060012        3052.486       -203.8442        660.3954       0       0
 2060013        3050.037       -208.9923        670.7533       0       0
 2060014        3047.588       -214.1404        681.1112       0       0
 2060015        3045.495       -219.4249        691.3425       0       0
 2060016        3043.401       -224.7095        701.5742       0       0
 2060017        3041.311       -230.0183        711.8341       0       0
 2060018        3038.931       -234.6733        722.3036       0       0
 2060019        3036.671       -239.9764        732.4813       0       0
 2060020        3034.412       -245.2796        742.6589       0       0
 2060021        3032.152       -250.5827        752.8368       0       0
$ ... 1041 like lines cut
$
$
$
$
*END
