$# LS-DYNA Keyword file created by LS-PrePost(R) V4.7.1 - 23Nov2019
$# Created on Apr-20-2021 (23:44:32)
$
$
$
$-------------------------------------------------------------------------------
$
$ DISCLAIMER:
$
$ This is a part of some standard models that LSTC has developed to serve
$ as "Learning Aids". We hope that our Worldwide Users will find them to
$ be enormously useful in improving their CAE methodology and learning the
$ inner intricacies of the way LS-Dyna handles various modeling techniques.
$
$ Please understand that LSTC takes no responsibility for errors in these
$ models/files and conclusions drawn through their application during the
$ Product Development phase. The user must verify his own results.
$
$ These models are integral parts of our continued efforts in giving back
$ our valued customers the very best.
$
$ 
$ Sarba Guha
$ (LSTC, Troy Office, Michigan, USA)
$
$ Date: 29th October, 2008
$
$-------------------------------------------------------------------------------
$
$
$
*KEYWORD
$
$
$
*TITLE
$
$#                                                                         title
Vehicle Environment Template With Pitch_Drop_Yaw_Pulse
$
$
$
$
$
$
$
$
$
$
$
$
*DATABASE_HISTORY_BEAM
$
$      id1       id2       id3       id4       id5       id6       id7       id8
$#     id1       id2       id3       id4       id5       id6       id7       id8
   3001834         0         0         0         0         0         0         0
$
$
$
*DATABASE_HISTORY_NODE
$
$      id1       id2       id3       id4       id5       id6       id7       id8
$#     id1       id2       id3       id4       id5       id6       id7       id8
   3000001   3000028   3000077   3000222   3000223   3000224   3000231   3000233
$
$      id1       id2       id3       id4       id5       id6       id7       id8
   3000235   3000237   3000239   3000241   3000243   3000245   3000247   3000249
$
$      id1       id2       id3       id4       id5       id6       id7       id8
   3000251   3000253   3000255   3000257   3000259   3000261   3000263   3000265
$
$      id1       id2       id3       id4       id5       id6       id7       id8
   3000267   3000269   3000271   3000089   3000103   3001135   3001564   3001235
$
$      id1       id2       id3       id4       id5       id6       id7       id8
   3003092         0         0         0         0         0         0         0
$
$
$
$************** End DATABASE Block *********************************************
$
$
$
$ - removed by KJL, use Iraeus prametrized Pulse instead.
$
$
$
$$$$$$$$$$$$$$$ Begin ACCELERATION FIELD TO DUMMY & VEHICLE Block $$$$$$$$$$$$$$
$ - removed by KJL, use Iraeus parametrized pulse instead.
$$$$$$$$$$$$$$$ End ACCELERATION FIELD TO DUMMY AND BUCK Block $$$$$$$$$$$$$$$$$
$
$
$
$************** Begin CONTACT Block ********************************************
$
$
$
*CONTACT_AUTOMATIC_SURFACE_TO_SURFACE
$#     cid                                                                 title
$
$     ssid      msid     sstyp     mstyp    sboxid    mboxid       spr       mpr
$#    ssid      msid     sstyp     mstyp    sboxid    mboxid       spr       mpr
   3000015   3000016         2         2         0         0         1         1
$
$       fs        fd        dc        vc       vdc    penchk        bt        dt
$#      fs        fd        dc        vc       vdc    penchk        bt        dt
       0.4       0.4       0.0       0.0      20.0         1       0.01.00000E20
$
$      sfs       sfm       sst       mst      sfst      sfmt       fsf       vsf
$#     sfs       sfm       sst       mst      sfst      sfmt       fsf       vsf
       0.0       0.0       0.0       0.0       1.0       1.0       1.0       1.0
$
$
*SET_PART_LIST
$
$      sid       da1       da2       da3       da4
$#     sid       da1       da2       da3       da4    solver      
   3000015       0.0       0.0       0.0       0.0MECH
$#    pid1      pid2      pid3      pid4      pid5      pid6      pid7      pid8
   3000093   3000094         0         0         0         0         0         0
$
$
*SET_PART_LIST
$
$      sid       da1       da2       da3       da4
$#     sid       da1       da2       da3       da4    solver      
   3000016       0.0       0.0       0.0       0.0MECH
$#    pid1      pid2      pid3      pid4      pid5      pid6      pid7      pid8
   3000083         0         0         0         0         0         0         0
$
$
$
*CONTACT_AUTOMATIC_NODES_TO_SURFACE
$#     cid                                                                 title
$
$     ssid      msid     sstyp     mstyp    sboxid    mboxid       spr       mpr
$#    ssid      msid     sstyp     mstyp    sboxid    mboxid       spr       mpr
   3000017   3000018         2         2         0         0         1         1
$
$       fs        fd        dc        vc       vdc    penchk        bt        dt
$#      fs        fd        dc        vc       vdc    penchk        bt        dt
       0.4       0.4       0.0       0.0      20.0         1       0.01.00000E20
$
$      sfs       sfm       sst       mst      sfst      sfmt       fsf       vsf
$#     sfs       sfm       sst       mst      sfst      sfmt       fsf       vsf
       5.0       1.0       0.0       0.0       1.0       1.0       1.0       1.0
$
$
*SET_PART_LIST
$
$      sid       da1       da2       da3       da4
$#     sid       da1       da2       da3       da4    solver      
   3000017       0.0       0.0       0.0       0.0MECH
$#    pid1      pid2      pid3      pid4      pid5      pid6      pid7      pid8
   3000093   3000094         0         0         0         0         0         0
$
$
*SET_PART_LIST
$
$      sid       da1       da2       da3       da4
$#     sid       da1       da2       da3       da4    solver      
   3000018       0.0       0.0       0.0       0.0MECH
$#    pid1      pid2      pid3      pid4      pid5      pid6      pid7      pid8
   3000085         0         0         0         0         0         0         0
$
$
$
*CONTACT_AUTOMATIC_SURFACE_TO_SURFACE
$#     cid                                                                 title
$
$ Airbag_IP_Contact
$
$     ssid      msid     sstyp     mstyp    sboxid    mboxid       spr       mpr
$#    ssid      msid     sstyp     mstyp    sboxid    mboxid       spr       mpr
   3000043   3000083         2         3         0         0         0         0
$
$       fs        fd        dc        vc       vdc    penchk        bt        dt
$#      fs        fd        dc        vc       vdc    penchk        bt        dt
       0.3       0.3       0.0       0.0       0.0         1       0.0    1000.0
$
$      sfs       sfm       sst       mst      sfst      sfmt       fsf       vsf
$#     sfs       sfm       sst       mst      sfst      sfmt       fsf       vsf
       3.0       3.0       0.0       0.0       1.0       1.0       1.0       1.0
$
$     soft    sofscl    lcidab    maxpar     sbopt     depth     bsort    frcfrq
$#    soft    sofscl    lcidab    maxpar     sbopt     depth     bsort    frcfrq
         2       0.1         0     1.025       2.0         2         0         1
$
$   penmax    thkopt    shlthk     snlog      isym     i2d3d    sldthk    sldstf
$#  penmax    thkopt    shlthk     snlog      isym     i2d3d    sldthk    sldstf
       0.0         0         0         0         0         0       0.0       0.0
$
$
*SET_PART_LIST
$
$ Airbag Parts
$
$      sid       da1       da2       da3       da4
$#     sid       da1       da2       da3       da4    solver      
   3000043       0.0       0.0       0.0       0.0MECH
$#    pid1      pid2      pid3      pid4      pid5      pid6      pid7      pid8
   3000093   3000094         0         0         0         0         0         0
$
$
$
*CONTACT_AUTOMATIC_SURFACE_TO_SURFACE
$#     cid                                                                 title
$
$ Airbag_Dummy_Contact
$
$     ssid      msid     sstyp     mstyp    sboxid    mboxid       spr       mpr
$#    ssid      msid     sstyp     mstyp    sboxid    mboxid       spr       mpr
   3000043   1000006         2         2         0         0         0         0
$
$       fs        fd        dc        vc       vdc    penchk        bt        dt
$#      fs        fd        dc        vc       vdc    penchk        bt        dt
      0.45      0.45       0.0       0.0       0.0         1       0.0    1000.0
$
$      sfs       sfm       sst       mst      sfst      sfmt       fsf       vsf
$#     sfs       sfm       sst       mst      sfst      sfmt       fsf       vsf
       3.0       3.0       0.0       0.0       1.0       1.0       1.0       1.0
$
$     soft    sofscl    lcidab    maxpar     sbopt     depth     bsort    frcfrq
$#    soft    sofscl    lcidab    maxpar     sbopt     depth     bsort    frcfrq
         2       0.1         0     1.025       2.0         2         0         1
$
$   penmax    thkopt    shlthk     snlog      isym     i2d3d    sldthk    sldstf
$#  penmax    thkopt    shlthk     snlog      isym     i2d3d    sldthk    sldstf
       0.0         0         0         0         0         0       0.0       0.0
$
$
$
*CONTACT_AIRBAG_SINGLE_SURFACE
$#     cid                                                                 title
$
$     ssid      msid     sstyp     mstyp    sboxid    mboxid       spr       mpr
$#    ssid      msid     sstyp     mstyp    sboxid    mboxid       spr       mpr
   3000043         0         2         0         0         0         0         0
$
$       fs        fd        dc        vc       vdc    penchk        bt        dt
$#      fs        fd        dc        vc       vdc    penchk        bt        dt
       0.0       0.0       0.0       0.0       0.0         1       0.0    1000.0
$
$      sfs       sfm       sst       mst      sfst      sfmt       fsf       vsf
$#     sfs       sfm       sst       mst      sfst      sfmt       fsf       vsf
       3.0       3.0       0.0       0.0       1.0       1.0       1.0       1.0
$
$     soft    sofscl    lcidab    maxpar     sbopt     depth     bsort    frcfrq
$#    soft    sofscl    lcidab    maxpar     sbopt     depth     bsort    frcfrq
         2       0.1         0     1.025       2.0         2         0         1
$
$   penmax    thkopt    shlthk     snlog      isym     i2d3d    sldthk    sldstf
$#  penmax    thkopt    shlthk     snlog      isym     i2d3d    sldthk    sldstf
       0.0         0         0         0         0         0       0.0       0.0
$
$
$
*CONTACT_RIGID_BODY_ONE_WAY_TO_RIGID_BODY
$#     cid                                                                 title
$
$ knee to bolster contact, based on max knee node penetration
$ lcid = load curve
$  fcm = 1 for max penetration of any node
$   us = unloading stiffness
$
$     ssid      msid     sstyp     mstyp    sboxid    mboxid       spr       mpr
$ LeftKnee        IP
$    (Set)     (PID)
$#    ssid      msid     sstyp     mstyp    sboxid    mboxid       spr       mpr
   1000009   3000100         2         3         0         0         1         1
$
$       fs        fd        dc        vc       vdc    penchk        bt        dt
$#      fs        fd        dc        vc       vdc    penchk        bt        dt
       0.3       0.3       0.0       0.0       0.0         0       0.01.00000E20
$
$      sfs       sfm       sst       mst      sfst      sfmt       fsf       vsf
$#     sfs       sfm       sst       mst      sfst      sfmt       fsf       vsf
       0.0       0.0       0.0       0.0       1.0       1.0       1.0       1.0
$
$     lcid       fcm        us                lcdc       dsf
$#    lcid       fcm        us                lcdc       dsf    unlcid      
   3080001         1       0.0         0         0       0.0         0
$
$
$
*CONTACT_RIGID_BODY_ONE_WAY_TO_RIGID_BODY
$#     cid                                                                 title
$
$ knee to bolster contact, based on max knee node penetration
$ lcid = load curve
$  fcm = 1 for max penetration of any node
$   us = unloading stiffness
$
$     ssid      msid     sstyp     mstyp    sboxid    mboxid       spr       mpr
$RightKnee        IP
$    (Set)     (PID)
$#    ssid      msid     sstyp     mstyp    sboxid    mboxid       spr       mpr
   1000010   3000100         2         3         0         0         1         1
$
$       fs        fd        dc        vc       vdc    penchk        bt        dt
$#      fs        fd        dc        vc       vdc    penchk        bt        dt
       0.3       0.3       0.0       0.0       0.0         0       0.01.00000E20
$
$      sfs       sfm       sst       mst      sfst      sfmt       fsf       vsf
$#     sfs       sfm       sst       mst      sfst      sfmt       fsf       vsf
       0.0       0.0       0.0       0.0       1.0       1.0       1.0       1.0
$
$     lcid       fcm        us                lcdc       dsf
$#    lcid       fcm        us                lcdc       dsf    unlcid      
   3080001         1       0.0         0         0       0.0         0
$
$
$
*CONTACT_RIGID_BODY_ONE_WAY_TO_RIGID_BODY
$#     cid                                                                 title
$
$ pelvis to seat contact, based on max pelvis node penetration
$ lcid = load curve
$  fcm = 1 for max penetration of any node
$   us = unloading stiffness
$
$     ssid      msid     sstyp     mstyp    sboxid    mboxid       spr       mpr
$      Hip      Seat
$    (Set)     (PID)
$#    ssid      msid     sstyp     mstyp    sboxid    mboxid       spr       mpr
   1000008   3000095         2         3         0         0         1         1
$
$       fs        fd        dc        vc       vdc    penchk        bt        dt
$#      fs        fd        dc        vc       vdc    penchk        bt        dt
       0.1       0.1       0.0       0.0       0.0         0       0.01.00000E20
$
$      sfs       sfm       sst       mst      sfst      sfmt       fsf       vsf
$#     sfs       sfm       sst       mst      sfst      sfmt       fsf       vsf
       0.0       0.0       0.0       0.0       1.0       1.0       1.0       1.0
$
$     lcid       fcm        us
$    80002         1     0.585
$     lcid       fcm        us                lcdc       dsf
$#    lcid       fcm        us                lcdc       dsf    unlcid      
   3080002         1       0.0         0         0       0.0         0
$
$
$
*CONTACT_RIGID_BODY_ONE_WAY_TO_RIGID_BODY
$#     cid                                                                 title
$
$ FloorPan_DummyShoes
$ lcid = load curve
$  fcm = 1 for max penetration of any node
$   us = unloading stiffness
$
$      Hip      Seat
$     ssid      msid     sstyp     mstyp    sboxid    mboxid       spr       mpr
$    (Set)     (Set)
$#    ssid      msid     sstyp     mstyp    sboxid    mboxid       spr       mpr
   1000007   3000044         2         2         0         0         0         0
$
$       fs        fd        dc        vc       vdc    penchk        bt        dt
$#      fs        fd        dc        vc       vdc    penchk        bt        dt
       0.8       0.8       0.0       0.0       0.0         0       0.01.00000E20
$
$      sfs       sfm       sst       mst      sfst      sfmt       fsf       vsf
$#     sfs       sfm       sst       mst      sfst      sfmt       fsf       vsf
       0.0       0.0       0.0       0.0       1.0       1.0       1.0       1.0
$
$     lcid       fcm        us
$    80002         1     0.585
$     lcid       fcm        us                lcdc       dsf
$#    lcid       fcm        us                lcdc       dsf    unlcid      
   3080003         1       0.0         0         0       0.0         0
$
$
$
*SET_PART_LIST
$
$ Floor Pan
$      sid       da1       da2       da3       da4
$#     sid       da1       da2       da3       da4    solver      
   3000044       0.0       0.0       0.0       0.0MECH
$#    pid1      pid2      pid3      pid4      pid5      pid6      pid7      pid8
   3000098   3000099         0         0         0         0         0         0
$
$
$
$************** End CONTACT Block **********************************************
$
$
$
$
$
$
$-------------------------------------------------------------------------------
$
$
$ The following is the MOST IMPORTANT Rigd Part of the Vehicle Model.
$
$ All other Parts of the Vehicle are in some way connected to Part-3000081.
$ Please check the "Rigid Body Constraints" Block (Extra-Nodes & Merges) to
$ understand how they are all connected to Part-3000081.
$
$ NOTES:
$
$ 1) This is defined by "Part_Inertia", instead of a simple "Part".
$
$ 2) I have defined the "Center of Gravity" of this Part using Node-3003092.
$    This Node will serve as the "Pitching & Yawing" Point for Vehicle Motions.
$
$ 3) The "Mass" and "Inertias" of this Part is not all that important.
$    Some numbers have been given in a fashion so as not to cause instabilities.
$
$
*PART_INERTIA
$
$#                                                                         title
PSHELL                           VEHICLE
$      pid     secid       mid     eosid      hgid      grav    adpopt      tmid
$#     pid     secid       mid     eosid      hgid      grav    adpopt      tmid
   3000081   3000081   3000081         0         0         0         0         0
$
$       xc        yc        zc        tm      ircs    nodeid
$#      xc        yc        zc        tm      ircs    nodeid      
       0.0       0.0       0.0     100.0         0   3003092
$
$      ixx       ixy       ixz       iyy       iyz       izz
$#     ixx       ixy       ixz       iyy       iyz       izz   
     100.0       0.0       0.0     100.0       0.0     100.0
$
$      vtx       vty       vtz       vrx       vry       vrz
$#     vtx       vty       vtz       vrx       vry       vrz   
       0.0       0.0       0.0       0.0       0.0       0.0
$
$
*SECTION_SHELL
$
$    secid    elform      shrf       nip     propt   qr/irid     icomp     setyp
$#   secid    elform      shrf       nip     propt   qr/irid     icomp     setyp
   3000081         2       0.0         1       1.0         0         0         1
$
$       t1        t2        t3        t4      nloc     marea      idof    edgset
$#      t1        t2        t3        t4      nloc     marea      idof    edgset
       1.0       1.0       1.0       1.0       0.0       0.0       0.0         0
$
$
*MAT_RIGID
$
$ cmo = 1 constraints applied in global directions
$ con1 = 7 constrained in x, y, z displacement, 4 constrain y & x dis.
$ con2 = 7 constrained in x, y, z rotations,    6 constrain x & z rot.
$
$      mid        ro         e        pr         n    couple         m     alias
$#     mid        ro         e        pr         n    couple         m     alias
   30000817.85000E-6     210.0       0.3       0.0       0.0       0.0          
$
$      cmo      con1      con2
$#     cmo      con1      con2    
       0.0         0         0
$
$lco or a1        a2        a3        v1        v2        v3
$#lco or a1        a2        a3        v1        v2        v3  
       0.0       0.0       0.0       0.0       0.0       0.0
$
$
$-------------------------------------------------------------------------------
$
$
$
*PART
$
$  title
$#                                                                         title
PSHELL                               STRCLMLWR
$
$      pid     secid       mid     eosid      hgid      grav    adpopt      tmid
$#     pid     secid       mid     eosid      hgid      grav    adpopt      tmid
   3000082   3000082   3000082         0         0         0         0         0
$
$
*SECTION_SHELL
$
$    secid    elform      shrf       nip     propt   qr/irid     icomp     setyp
$#   secid    elform      shrf       nip     propt   qr/irid     icomp     setyp
   3000082         2       1.0         2       1.0         0         0         1
$
$       t1        t2        t3        t4      nloc     marea      idof    edgset
$#      t1        t2        t3        t4      nloc     marea      idof    edgset
     4.088     4.088     4.088     4.088       0.0       0.0       0.0         0
$
$
*MAT_RIGID
$
$      mid        ro         e        pr         n    couple         m     alias
$#     mid        ro         e        pr         n    couple         m     alias
   30000827.83000E-6     200.0       0.3       0.0       0.0       0.0          
$
$      cmo      con1      con2
$#     cmo      con1      con2    
       0.0         0         0
$
$lco or a1        a2        a3        v1        v2        v3
$#lco or a1        a2        a3        v1        v2        v3  
       0.0       0.0       0.0       0.0       0.0       0.0
$
$
$
*PART
$
$#                                                                         title
PSHELL                               WHEEL
$
$      pid     secid       mid     eosid      hgid      grav    adpopt      tmid
$#     pid     secid       mid     eosid      hgid      grav    adpopt      tmid
   3000083   3000083   3000083         0         0         0         0         0
$
$
*SECTION_SHELL
$
$    secid    elform      shrf       nip     propt   qr/irid     icomp     setyp
$#   secid    elform      shrf       nip     propt   qr/irid     icomp     setyp
   3000083         2       1.0         2       1.0         0         0         1
$
$       t1        t2        t3        t4      nloc     marea      idof    edgset
$#      t1        t2        t3        t4      nloc     marea      idof    edgset
     1.284     1.284     1.284     1.284       0.0       0.0       0.0         0
$
$
*MAT_RIGID
$
$      mid        ro         e        pr         n    couple         m     alias
$#     mid        ro         e        pr         n    couple         m     alias
   30000837.83000E-6     200.0       0.3       0.0       0.0       0.0          
$
$      cmo      con1      con2
$#     cmo      con1      con2    
       0.0         0         0
$
$lco or a1        a2        a3        v1        v2        v3
$#lco or a1        a2        a3        v1        v2        v3  
       0.0       0.0       0.0       0.0       0.0       0.0
$
$
$
*PART
$#                                                                         title
PSHELL                               STRCLMUP
$
$      pid     secid       mid     eosid      hgid      grav    adpopt      tmid
$#     pid     secid       mid     eosid      hgid      grav    adpopt      tmid
   3000084   3000084   3000084         0         0         0         0         0
$
$
*SECTION_SHELL
$
$    secid    elform      shrf       nip     propt   qr/irid     icomp     setyp
$#   secid    elform      shrf       nip     propt   qr/irid     icomp     setyp
   3000084         2       1.0         2       1.0         0         0         1
$
$       t1        t2        t3        t4      nloc     marea      idof    edgset
$#      t1        t2        t3        t4      nloc     marea      idof    edgset
     4.088     4.088     4.088     4.088       0.0       0.0       0.0         0
$
$
*MAT_RIGID
$
$      mid        ro         e        pr         n    couple         m     alias
$#     mid        ro         e        pr         n    couple         m     alias
   30000847.83000E-6     200.0       0.3       0.0       0.0       0.0          
$
$      cmo      con1      con2
$#     cmo      con1      con2    
       0.0         0         0
$
$ lco or a1       a2        a3        v1        v2        v3
$#lco or a1        a2        a3        v1        v2        v3  
       0.0       0.0       0.0       0.0       0.0       0.0
$
$
*PART
$
$#                                                                         title
PSHELL                               WINDSHIELD
$
$      pid     secid       mid     eosid      hgid      grav    adpopt      tmid
$#     pid     secid       mid     eosid      hgid      grav    adpopt      tmid
   3000085   3000085   3000085         0         0         0         0         0
$
$
*SECTION_SHELL
$
$    secid    elform      shrf       nip     propt   qr/irid     icomp     setyp
$#   secid    elform      shrf       nip     propt   qr/irid     icomp     setyp
   3000085         2       1.0         2       1.0         0         0         1
$
$       t1        t2        t3        t4      nloc     marea      idof    edgset
$#      t1        t2        t3        t4      nloc     marea      idof    edgset
     4.088     4.088     4.088     4.088       0.0       0.0       0.0         0
$
$
*MAT_RIGID
$
$      mid        ro         e        pr         n    couple         m     alias
$#     mid        ro         e        pr         n    couple         m     alias
   30000857.83000E-6     200.0       0.3       0.0       0.0       0.0          
$
$      cmo      con1      con2
$#     cmo      con1      con2    
       0.0         0         0
$
$lco or a1        a2        a3        v1        v2        v3
$#lco or a1        a2        a3        v1        v2        v3  
       0.0       0.0       0.0       0.0       0.0       0.0
$
$
*PART
$
$#                                                                         title
PSHELL                               ROOF
$
$      pid     secid       mid     eosid      hgid      grav    adpopt      tmid
$#     pid     secid       mid     eosid      hgid      grav    adpopt      tmid
   3000086   3000086   3000086         0         0         0         0         0
$
$
*SECTION_SHELL
$
$    secid    elform      shrf       nip     propt   qr/irid     icomp     setyp
$#   secid    elform      shrf       nip     propt   qr/irid     icomp     setyp
   3000086         2       1.0         2       1.0         0         0         1
$
$       t1        t2        t3        t4      nloc     marea      idof    edgset
$#      t1        t2        t3        t4      nloc     marea      idof    edgset
     4.088     4.088     4.088     4.088       0.0       0.0       0.0         0
$
$
*MAT_RIGID
$
$      mid        ro         e        pr         n    couple         m     alias
$#     mid        ro         e        pr         n    couple         m     alias
   30000867.83000E-6     200.0       0.3       0.0       0.0       0.0          
$
$      cmo      con1      con2
$#     cmo      con1      con2    
       0.0         0         0
$
$lco or a1        a2        a3        v1        v2        v3
$#lco or a1        a2        a3        v1        v2        v3  
       0.0       0.0       0.0       0.0       0.0       0.0
$
$
*PART
$
$#                                                                         title
PSHELL                               LAP BELT ATTACHMENT
$
$      pid     secid       mid     eosid      hgid      grav    adpopt      tmid
$#     pid     secid       mid     eosid      hgid      grav    adpopt      tmid
   3000087   3000087   3000087         0         0         0         0         0
$
*SECTION_SHELL
$
$    secid    elform      shrf       nip     propt   qr/irid     icomp     setyp
$#   secid    elform      shrf       nip     propt   qr/irid     icomp     setyp
   3000087         2       1.0         2       1.0         0         0         1
$
$       t1        t2        t3        t4      nloc     marea      idof    edgset
$#      t1        t2        t3        t4      nloc     marea      idof    edgset
     4.088     4.088     4.088     4.088       0.0       0.0       0.0         0
$
$
*MAT_RIGID
$
$      mid        ro         e        pr         n    couple         m     alias
$#     mid        ro         e        pr         n    couple         m     alias
   30000877.83000E-6     200.0       0.3       0.0       0.0       0.0          
$
$      cmo      con1      con2
$#     cmo      con1      con2    
       0.0         0         0
$
$lco or a1        a2        a3        v1        v2        v3
$#lco or a1        a2        a3        v1        v2        v3  
       0.0       0.0       0.0       0.0       0.0       0.0
$
$
$
*PART
$
$#                                                                         title
PBAR                                 STEERING BEAM
$
$      pid     secid       mid     eosid      hgid      grav    adpopt      tmid
$#     pid     secid       mid     eosid      hgid      grav    adpopt      tmid
   3000092   3000100   3000100         0         0         0         0         0
$
$
*SECTION_BEAM
$
$    secid    elform      shrf   qr/irid       cst     scoor       nsm
$#   secid    elform      shrf   qr/irid       cst     scoor       nsm     naupd
   3000100         2       1.0         2         0       0.0       0.0         0
$
$        a       iss       itt       irr        sa
$#       a       iss       itt         j        sa       ist   
    1154.0  420500.0  420500.0  841000.0     576.8       0.0
$
$
*MAT_FORCE_LIMITED
$
$      mid        ro         e        pr        df      aopt    ytflag     asoft
$#     mid        ro         e        pr        df     iaflc    ytflag     asoft
   30001007.83000E-6     207.0      0.28       0.0         1       0.0       0.0
$
$       m1        m2        m3        m4        m5        m6        m7        m8
$#      m1        m2        m3        m4        m5        m6        m7        m8
       0.0       0.0       0.0       0.0       0.0       0.0       0.0       0.0
$
$      lc1       lc2       lc3       lc4       lc5       lc6       lc7       lc8
$#     lc1       lc2       lc3       lc4       lc5       lc6       lc7       lc8
   3000017         0         0         0         0         0         0         0
$
$     lps1      sfs1      lps2      sfs2      yms1      yms2
$#    lps1      sfs1      lps2      sfs2      yms1      yms2    
         0       0.0         0       0.0       0.0       0.0
$
$     lpt1      sft1      lpt2      sft2      ymt1      ymt2
$#    lpt1      sft1      lpt2      sft2      ymt1      ymt2    
         0       0.0         0       0.0       0.0       0.0
$
$      lpr       sfr       ymr
$#     lpr       sfr       ymr   
         0       0.0       0.0
$
$
$
*PART
$
$#                                                                         title
PSHELL                               AIRBAG UPPER
$
$      pid     secid       mid     eosid      hgid      grav    adpopt      tmid
$#     pid     secid       mid     eosid      hgid      grav    adpopt      tmid
   3000093   3000092   3000092         0         0         0         0         0
$
$
*SECTION_SHELL
$
$    secid    elform      shrf       nip     propt   qr/irid     icomp     setyp
$#   secid    elform      shrf       nip     propt   qr/irid     icomp     setyp
   3000092         5       0.0         1       1.0         0         1         1
$
$       t1        t2        t3        t4      nloc     marea      idof    edgset
$#      t1        t2        t3        t4      nloc     marea      idof    edgset
    0.3048    0.3048    0.3048    0.3048       0.0       0.0       0.0         0
$
$       bi        bi        bi        bi        bi        bi        bi        bi
$#      bi        bi        bi        bi        bi        bi        bi        bi
       0.0       0.0       0.0       0.0       0.0       0.0       0.0       0.0
$
$
*MAT_FABRIC
$
$      mid        ro        ea        eb        ec      prba      prca      prcb
$#     mid        ro        ea        eb         -      prba      prab         -
   30000928.76000E-7       0.3       0.2       0.3       0.2       0.2       0.2
$
$      gab       gbc       gca       cse        el       prl    lratio      damp
$#     gab         -         -       cse        el       prl    lratio      damp
      0.04      0.04      0.04       1.0      0.06      0.35       0.1       0.2
$
$     aopt       flc       fac       ela      lnrc      form     fvopt    tsrfac
$#    aopt       flc       fac       ela      lnrc      form     fvopt    tsrfac
       3.0       0.0       0.0       0.0       0.0         0         0       0.0
$
$       xp        yp        zp        a1        a2        a3        xd        xl
$#  unused    rgbrth     a0ref        a1        a2        a3        x0        x1
                 0.0         0       1.0       0.0       0.0       0.0       0.0
$
$       v1        v2        v3        d1        d2        d3      beta    isrefg
$#      v1        v2        v3         -         -         -      beta    isrefg
       1.0       0.0       0.0       0.0       0.0       0.0       0.0         0
$
$
*PART
$
$#                                                                         title
PSHELL                               AIRBAG LOWER
$
$      pid     secid       mid     eosid      hgid      grav    adpopt      tmid
$#     pid     secid       mid     eosid      hgid      grav    adpopt      tmid
   3000094   3000093   3000093         0         0         0         0         0
$
$
*SECTION_SHELL
$
$    secid    elform      shrf       nip     propt   qr/irid     icomp     setyp
$#   secid    elform      shrf       nip     propt   qr/irid     icomp     setyp
   3000093         5       0.0         1       1.0         0         1         1
$
$       t1        t2        t3        t4      nloc     marea      idof    edgset
$#      t1        t2        t3        t4      nloc     marea      idof    edgset
    0.3048    0.3048    0.3048    0.3048       0.0       0.0       0.0         0
$
$       bi        bi        bi        bi        bi        bi        bi        bi
$#      bi        bi        bi        bi        bi        bi        bi        bi
       0.0       0.0       0.0       0.0       0.0       0.0       0.0       0.0
$
$
*MAT_FABRIC
$
$      mid        ro        ea        eb        ec      prba      prca      prcb
$#     mid        ro        ea        eb         -      prba      prab         -
   30000938.76000E-7       0.3       0.2       0.3       0.2       0.2       0.2
$
$      gab       gbc       gca       cse        el       prl    lratio      damp
$#     gab         -         -       cse        el       prl    lratio      damp
      0.04      0.04      0.04       1.0      0.06      0.35       0.1       0.2
$
$     aopt       flc       fac       ela      lnrc      form     fvopt    tsrfac
$#    aopt       flc       fac       ela      lnrc      form     fvopt    tsrfac
       3.0       0.0       0.0       0.0       0.0         0         0       0.0
$
$       xp        yp        zp        a1        a2        a3        xd        xl
$#  unused    rgbrth     a0ref        a1        a2        a3        x0        x1
                 0.0         0       1.0       0.0       0.0       0.0       0.0
$
$       v1        v2        v3        d1        d2        d3      beta    isrefg
$#      v1        v2        v3         -         -         -      beta    isrefg
       1.0       0.0       0.0       0.0       0.0       0.0       0.0         0
$
$
*PART
$
$#                                                                         title
PSHELL                               SEAT CUSHION
$
$      pid     secid       mid     eosid      hgid      grav    adpopt      tmid
$#     pid     secid       mid     eosid      hgid      grav    adpopt      tmid
   3000095   3000094   3000094         0         0         0         0         0
$
$
*SECTION_SHELL
$
$    secid    elform      shrf       nip     propt   qr/irid     icomp     setyp
$#   secid    elform      shrf       nip     propt   qr/irid     icomp     setyp
   3000094         2       0.0         3       1.0         0         0         1
$
$       t1        t2        t3        t4      nloc     marea      idof    edgset
$#      t1        t2        t3        t4      nloc     marea      idof    edgset
       0.8       0.8       0.8       0.8       0.0       0.0       0.0         0
$
$
*MAT_RIGID
$
$      mid        ro         e        pr         n    couple         m     alias
$#     mid        ro         e        pr         n    couple         m     alias
   30000947.83000E-6     200.0       0.3       0.0       0.0       0.0          
$
$      cmo      con1      con2
$#     cmo      con1      con2    
       0.0         0         0
$
$ lco or a1       a2        a3        v1        v2        v3
$#lco or a1        a2        a3        v1        v2        v3  
       0.0       0.0       0.0       0.0       0.0       0.0
$
$
*PART
$
$#                                                                         title
PSHELL                               SEAT BACK
$
$      pid     secid       mid     eosid      hgid      grav    adpopt      tmid
$#     pid     secid       mid     eosid      hgid      grav    adpopt      tmid
   3000096   3000095   3000095         0         0         0         0         0
$
*SECTION_SHELL
$
$    secid    elform      shrf       nip     propt   qr/irid     icomp     setyp
$#   secid    elform      shrf       nip     propt   qr/irid     icomp     setyp
   3000095         2       0.0         3       1.0         0         0         1
$
$       t1        t2        t3        t4      nloc     marea      idof    edgset
$#      t1        t2        t3        t4      nloc     marea      idof    edgset
       0.8       0.8       0.8       0.8       0.0       0.0       0.0         0
$
$
*MAT_RIGID
$
$      mid        ro         e        pr         n    couple         m     alias
$#     mid        ro         e        pr         n    couple         m     alias
   30000957.83000E-6     200.0       0.3       0.0       0.0       0.0          
$
$      cmo      con1      con2
$#     cmo      con1      con2    
       0.0         0         0
$
$lco or a1        a2        a3        v1        v2        v3
$#lco or a1        a2        a3        v1        v2        v3  
       0.0       0.0       0.0       0.0       0.0       0.0
$
$
*PART
$
$#                                                                         title
PSHELL                               TOEPAN
$
$      pid     secid       mid     eosid      hgid      grav    adpopt      tmid
$#     pid     secid       mid     eosid      hgid      grav    adpopt      tmid
   3000098   3000097   3000097         0         0         0         0         0
$
$
*SECTION_SHELL
$
$    secid    elform      shrf       nip     propt   qr/irid     icomp     setyp
$#   secid    elform      shrf       nip     propt   qr/irid     icomp     setyp
   3000097         2       0.0         3       1.0         0         0         1
$
$       t1        t2        t3        t4      nloc     marea      idof    edgset
$#      t1        t2        t3        t4      nloc     marea      idof    edgset
       0.8       0.8       0.8       0.8       0.0       0.0       0.0         0
$
$
*MAT_RIGID
$
$      mid        ro         e        pr         n    couple         m     alias
$#     mid        ro         e        pr         n    couple         m     alias
   30000977.83000E-6     200.0       0.3       0.0       0.0       0.0          
$
$      cmo      con1      con2
$#     cmo      con1      con2    
       0.0         0         0
$
$ lco or a1       a2        a3        v1        v2        v3
$#lco or a1        a2        a3        v1        v2        v3  
       0.0       0.0       0.0       0.0       0.0       0.0
$
$
*PART
$
$#                                                                         title
PSHELL                               FLOORPAN
$
$      pid     secid       mid     eosid      hgid      grav    adpopt      tmid
$#     pid     secid       mid     eosid      hgid      grav    adpopt      tmid
   3000099   3000098   3000098         0         0         0         0         0
$
$
*SECTION_SHELL
$
$    secid    elform      shrf       nip     propt   qr/irid     icomp     setyp
$#   secid    elform      shrf       nip     propt   qr/irid     icomp     setyp
   3000098         2       0.0         3       1.0         0         0         1
$
$       t1        t2        t3        t4      nloc     marea      idof    edgset
$#      t1        t2        t3        t4      nloc     marea      idof    edgset
       0.8       0.8       0.8       0.8       0.0       0.0       0.0         0
$
$
*MAT_RIGID
$
$      mid        ro         e        pr         n    couple         m     alias
$#     mid        ro         e        pr         n    couple         m     alias
   30000987.83000E-6     200.0       0.3       0.0       0.0       0.0          
$
$      cmo      con1      con2
$#     cmo      con1      con2    
       0.0         0         0
$
$lco or a1        a2        a3        v1        v2        v3
$#lco or a1        a2        a3        v1        v2        v3  
       0.0       0.0       0.0       0.0       0.0       0.0
$
$
*PART
$
$#                                                                         title
PSHELL                               KNEE BOLSTER
$
$      pid     secid       mid     eosid      hgid      grav    adpopt      tmid
$#     pid     secid       mid     eosid      hgid      grav    adpopt      tmid
   3000100   3000099   3000099         0         0         0         0         0
$
$
*SECTION_SHELL
$
$    secid    elform      shrf       nip     propt   qr/irid     icomp     setyp
$#   secid    elform      shrf       nip     propt   qr/irid     icomp     setyp
   3000099         2       0.0         3       1.0         0         0         1
$
$       t1        t2        t3        t4      nloc     marea      idof    edgset
$#      t1        t2        t3        t4      nloc     marea      idof    edgset
       0.8       0.8       0.8       0.8       0.0       0.0       0.0         0
$
$
*MAT_RIGID
$
$      mid        ro         e        pr         n    couple         m     alias
$#     mid        ro         e        pr         n    couple         m     alias
   30000997.83000E-6     200.0       0.3       0.0       0.0       0.0          
$
$      cmo      con1      con2
$#     cmo      con1      con2    
       0.0         0         0
$
$lco or a1        a2        a3        v1        v2        v3
$#lco or a1        a2        a3        v1        v2        v3  
       0.0       0.0       0.0       0.0       0.0       0.0
$
$
*PART
$
$#                                                                         title
Spring-Damper Part Definition.
$
$      pid     secid       mid     eosid      hgid      grav    adpopt      tmid
$#     pid     secid       mid     eosid      hgid      grav    adpopt      tmid
   3000101   3000101   3000101         0         0         0         0         0
$
$
*SECTION_DISCRETE
$
$    secid       dro        kd        v0        cl        fd
$#   secid       dro        kd        v0        cl        fd  
   3000101         0       0.0       0.0       0.0       0.0
$
$      cdl       tdl
$#     cdl       tdl   
       0.0       0.0
$
$
*MAT_SPRING_ELASTIC
$
$      mid         k
$#     mid         k 
   3000101     0.001
$
$
$
$
$
$
$$$$$$$$$$$$$$$ Begin COORDINATE SYSTEM Block $$$$$$$$$$$$$$$$$$$$$$$$$$$$$$$$$$
$
$
*DEFINE_COORDINATE_NODES
$
$      cid        n1        n2        n3      flag       dir
$#     cid        n1        n2        n3      flag       dir   
   3000036   3002163   3002166   3002165         0X
$
$
*DEFINE_COORDINATE_NODES
$
$      cid        n1        n2        n3      flag       dir
$#     cid        n1        n2        n3      flag       dir   
   3000037   3001564   3002167   3002170         0X
$
$
$$$$$$$$$$$$$$$ End COORDINATE SYSTEM Block $$$$$$$$$$$$$$$$$$$$$$$$$$$$$$$$$$$$
$
$
$
$************** Begin DEFINE CURVE Block ***************************************
$
$
$
$
$
$
$
$
$
$
$
$
$
$
$-------------------------------------------------------------------------------
$
$
$ The KNEE_BOLSTER FUNCTION
$
$ The following is the "Knees to Knee_Bolster Force vs. Penetration Function".
$
$ It should be measured from actual Test.
$ It has been used in the Right/Left Knee to KB "One Way" Contact Treatment.
$
$ Note that the actual units of the Curve are in MKS Units.
$
$ sfa = 1000.0 changes the given Penetration in "meters" to "millimeters".
$ sfo =  0.001 changes the given Force in "Newtons" to "kilo-Newtons".
$
$
$
$
$-------------------------------------------------------------------------------
$
$
$
$-------------------------------------------------------------------------------
$
$
$ The SEAT STIFFNESS FUNCTION
$
$ The following is the "Pelvis to Seat Force vs. Penetration Function".
$
$ It should be measured from actual Test.
$ It has been used in the Pelvis to Seat "One Way" Contact Treatment.
$
$ Note that the actual units of the Curve are in MKS Units.
$
$ sfa = 1000.0 changes the given Penetration in "meters" to "millimeters".
$ sfo =  0.001 changes the given Force in "Newtons" to "kilo-Newtons".
$
$
$
$
$-------------------------------------------------------------------------------
$
$
$ The FLOOR_PAN STIFFNESS FUNCTION
$
$ The following is the "Feet/Shoes to Floor_Pan Force vs. Penetration Function".
$
$ It simulates the softness of the Carpet and the Deformable Shoes.
$ It has been used in the Shoes to Floor_Pan "One Way" Contact Treatment.
$
$ Note that the actual units of the Curve are in MKS Units.
$
$ sfa = 1000.0 changes the given Penetration in "meters" to "millimeters".
$ sfo =  0.001 changes the given Force in "Newtons" to "kilo-Newtons".
$
$
$
$
$
$-------------------------------------------------------------------------------
$
$
$
$-------------------------------------------------------------------------------
$
$
$ The PITCH Curve (Referred to in Boundary_Prescribed_Motion)
$
$
$
$ If you want the Pitch to be "zero", uncomment the following two lines with $$
$ and comment out the above pitch curve.
$
$$             0.000               0.000
$$             0.200               0.000
$
$
$
$-------------------------------------------------------------------------------
$
$
$
$-------------------------------------------------------------------------------
$
$
$ The DROP Curve (Referred to in Boundary_Prescribed_Motion)
$
$
$
$
$ If you want the Drop to be "zero", uncomment the following two lines with $$
$ and comment out the above pitch curve.
$
$$             0.000               0.000
$$             0.200               0.000
$
$
$
$-------------------------------------------------------------------------------
$
$
$
$-------------------------------------------------------------------------------
$
$
$ The ZERO-MOTION Curve (Referred to in Boundary_Prescribed_Motion)
$
$
$
$
$-------------------------------------------------------------------------------
$
$
$
$-------------------------------------------------------------------------------
$
$
$ The YAW Curve (Referred to in Boundary_Prescribed_Motion)
$
$
$
$ If you want the Yaw to be "zero", uncomment the following two lines with $$
$ and comment out the above pitch curve.
$
$$             0.000               0.000
$$             0.200               0.000
$
$
$
$-------------------------------------------------------------------------------
$
$
$
$-------------------------------------------------------------------------------
$
$
$ The PULSE Curve (Referred to in Load_Body_X)
$
$
*DEFINE_CURVE
$
$     lcid      sidr       sfa       sfo      offa      offo    dattyp
$#    lcid      sidr       sfa       sfo      offa      offo    dattyp     lcint
   3000015         0   0.01745   0.09807       0.0       0.0         0         0
$
$                 a1                  o1
$#                a1                  o1  
              -100.0           -744890.0
               -90.0           -568467.0
               -80.0           -422280.0
               -70.0           -303485.0
               -60.0           -209238.0
               -50.0           -136695.0
               -40.0            -83012.0
               -30.0            -45345.0
               -20.0            -20850.0
               -19.0           -19015.47
               -18.0           -17281.37
               -17.0           -15644.86
               -16.0            -14103.1
               -15.0           -12653.25
               -14.0           -11292.46
               -13.0           -10017.88
               -12.0           -8826.672
               -11.0           -7715.994
               -10.0             -6683.0
                -9.0           -5724.846
$ ... 37 like lines cut
*DEFINE_CURVE
$
$     lcid      sidr       sfa       sfo      offa      offo    dattyp
$#    lcid      sidr       sfa       sfo      offa      offo    dattyp     lcint
   3000016         0   0.01745       1.0       0.0       0.0         0         0
$
$                 a1                  o1
$#                a1                  o1  
               -10.0   -1.0000000000e+07
                -6.0           -100000.0
                -5.0             -1000.0
                 0.0                 0.0
                 1.0             50000.0
                 5.0             50000.0
*DEFINE_CURVE
$
$     lcid      sidr       sfa       sfo      offa      offo    dattyp
$  3000017         0 10.000000  0.009807
$#    lcid      sidr       sfa       sfo      offa      offo    dattyp     lcint
   3000017         0      10.0&scfrc           0.0       0.0         0         0
$
$                 a1                  o1
$#                a1                  o1  
                 0.0                 0.0
                 1.0               545.0
                 3.0               545.0
                 4.5               545.0
                 5.0              2000.0
                 6.0             20000.0
                20.0             20000.0
*DEFINE_CURVE
$
$     lcid      sidr       sfa       sfo      offa      offo    dattyp
$#    lcid      sidr       sfa       sfo      offa      offo    dattyp     lcint
   3000018         0       1.0       1.0       0.0       0.0         0         0
$
$                 a1                  o1
$#                a1                  o1  
                 0.0               0.005
                20.0               0.005
                21.0                 0.0
               170.0                 0.0
*DEFINE_CURVE
$
$     lcid      sidr       sfa       sfo      offa      offo    dattyp
$  3000019         0  1.000000  0.001000 15.000000
$#    lcid      sidr       sfa       sfo      offa      offo    dattyp     lcint
   3000019         0       1.0&sabpr    &abtrg           0.0         0         0
$
$                 a1                  o1
$#                a1                  o1  
                 0.0                 0.0
                 1.0            0.011137
                 2.0           0.0074712
                 3.0            0.016539
                 4.0             0.55058
                 5.0              1.0335
                 6.0              1.3941
                 7.0              1.6323
                 8.0              1.7481
                 9.0              1.7414
                10.0              1.6124
                11.0              1.6929
                12.0              1.7199
                13.0              1.6937
                14.0              1.6141
                15.0              1.4812
                16.0              1.3845
                17.0              1.3032
                18.0              1.2373
                19.0              1.1868
$ ... 37 like lines cut
*DEFINE_CURVE
$
$     lcid      sidr       sfa       sfo      offa      offo    dattyp
$#    lcid      sidr       sfa       sfo      offa      offo    dattyp     lcint
   3000020         0       1.0&ableak          0.0       0.0         0         0
$  3000019         0  1.000000  0.001000 15.000000
$
$                 a1                  o1
$#                a1                  o1  
                 0.0              1265.0
    1.0130000010e-04              1265.0
    1.4259999443e-04              2597.0
                 1.0              2597.0
*DEFINE_CURVE
$
$     lcid      sidr       sfa       sfo      offa      offo    dattyp
$#    lcid      sidr       sfa       sfo      offa      offo    dattyp     lcint
   3080001         0    1000.0     0.001       0.0       0.0         0         0
$
$                 a1                  o1
$      (Penetration)             (Force)
$           (meters)                 (N)
$
$#                a1                  o1  
                 0.0                 0.0
               0.025              1600.0
                 0.1              2400.0
               0.175              2400.0
                0.22              3200.0
                0.24              4800.0
*DEFINE_CURVE
$
$     lcid      sidr       sfa       sfo      offa      offo    dattyp
$#    lcid      sidr       sfa       sfo      offa      offo    dattyp     lcint
   3080002         0    1000.0     0.001       0.0       0.0         0         0
$
$                 a1                  o1
$      (Penetration)             (Force)
$           (meters)                 (N)
$
$#                a1                  o1  
                 0.0                 0.0
               0.025             13500.0
                 0.1             20250.0
               0.175             20250.0
                0.22             27000.0
                0.24             40500.0
*DEFINE_CURVE
$
$     lcid      sidr       sfa       sfo      offa      offo    dattyp
$#    lcid      sidr       sfa       sfo      offa      offo    dattyp     lcint
   3080003         0    1000.0     0.001       0.0       0.0         0         0
$
$                 a1                  o1
$      (Penetration)             (Force)
$           (meters)                 (N)
$
$#                a1                  o1  
                 0.0                 0.0
               0.025             10000.0
                 0.1             15000.0
               0.175             15000.0
                0.22             20000.0
                0.24             30000.0
*DEFINE_CURVE
$
$     lcid      sidr       sfa       sfo      offa      offo    dattyp
$#    lcid      sidr       sfa       sfo      offa      offo    dattyp     lcint
   3080004         0    1000.0      -1.0       0.0       0.0         0         0
$
$ sfa = 1000.0 changes the given Time from "seconds" to "milliseconds".
$ sfo = -1.000 changes the "direction" of the given Pitch about the Y-axis.
$              (the front of the vehicle goes down and the rear goes up)
$
$ The following is the Pitch Angle in Radians (should be measured from test).
$
$                 a1                  o1
$  (Time in seconds)  (Pitch in Radians)
$
$#                a1                  o1  
                 0.0                 0.0
                0.02                 0.0
               0.055                0.03
               0.125               0.035
                 0.2               0.035
*DEFINE_CURVE
$
$     lcid      sidr       sfa       sfo      offa      offo    dattyp
$#    lcid      sidr       sfa       sfo      offa      offo    dattyp     lcint
   3080005         0    1000.0    1000.0       0.0       0.0         0         0
$
$ sfa = 1000.0 changes the given Time from "seconds" to "milliseconds".
$ sfo = 1000.0 changes the given Drop from "meters" to "millimeters".
$
$ The following is the Drop in metres (should be measured from test).
$
$                 a1                  o1
$  (Time in seconds)    (Drop in meters)
$
$#                a1                  o1  
                 0.0                 0.0
                0.02                 0.0
                 0.1               -0.06
                0.15               -0.08
                 0.2               -0.08
*DEFINE_CURVE
$
$     lcid      sidr       sfa       sfo      offa      offo    dattyp
$#    lcid      sidr       sfa       sfo      offa      offo    dattyp     lcint
   3080006         0       1.0       1.0       0.0       0.0         0         0
$
$ The following curve represents "zero motion".
$
$                 a1                  o1
$
$#                a1                  o1  
                 0.0                 0.0
              1200.0                 0.0
*DEFINE_CURVE
$
$     lcid      sidr       sfa       sfo      offa      offo    dattyp
$#    lcid      sidr       sfa       sfo      offa      offo    dattyp     lcint
   3080007         0    1000.0      -1.0       0.0       0.0         0         0
$
$ sfa = 1000.0 changes the given Time from "seconds" to "milliseconds".
$ sfo = -1.000 changes the "direction" of the given Yaw about the Z-axis.
$  (from top view the front of the vehicle rotates right, the rear rotates left)
$
$ The following curve represents "YAW about the Vertical Axis (Z)".
$
$                 a1                  o1
$  (Time in seconds)    (Yaw in Radians)
$
$#                a1                  o1  
                 0.0                 0.0
                0.02                 0.0
               0.055                0.03
               0.125               0.035
                 0.2               0.035
*DEFINE_CURVE
$
$     lcid      sidr       sfa       sfo      offa      offo    dattyp
$#    lcid      sidr       sfa       sfo      offa      offo    dattyp     lcint
   3080008         0    1000.0    -0.001       0.0       0.0         0         0
$
$ sfa = 1000.0 changes the given Time from "seconds" to "milliseconds".
$ sfo = -0.001 changes the given Acceleration from "m/s" to "mm/ms**2".
$
$ The following is the Pulse in m/sec**2 (should be measured from test).
$
$          (Seconds)          (m/sec**2)
$                 a1                  o1
$#                a1                  o1  
                 0.0                 0.0
                0.02              -250.0
                0.06              -250.0
               0.085                 0.0
                 0.2                 0.0
$
$
$
$-------------------------------------------------------------------------------
$
$
$
$************** End DEFINE CURVE Block *****************************************
$
$
$
$
$
$
*AIRBAG_WANG_NEFSKE_ID
$
$       id                                                                 title
$#      id                                                                 title
         1                                                                      
$
$      sid    sidtyp      rbid      vsca      psca      vini       mwd      spsf
$#     sid    sidtyp      rbid      vsca      psca      vini       mwd      spsf
   3000042         1         0       1.0       1.0       0.0       0.0       0.0
$
$       cv        cp         t       lct      lcmt      tvol      lcdt      iabt
$#      cv        cp         t       lct      lcmt      tvol      lcdt      iabt
    1023.0    1320.0     781.9         0   3000019       0.0         0       0.0
$
$      c23     lcc23       a23     lca23      cp23    lccp23      ap23    lcap23
$#     c23     lcc23       a23     lca23      cp23    lccp23      ap23    lcap23
       1.0         0       0.0   3000020       1.0         0       0.0         0
$
$       pe        ro        gc     lcefr     pover      ppop       opt     knkdn
$#      pe        ro        gc     lcefr     pover      ppop       opt     knkdn
1.01300E-41.00000E-9       1.0         0       0.0       0.0         1         0
$
$      ioc       ioa      ivol       iro        it      lcbf     hconv
$#     ioc       ioa      ivol       iro        it      lcbf    
       0.0       0.0       0.0       0.0       0.0         0
$
$
$************** Begin CONSTRAINED RIGID BODIES & EXTRA NODES Block *************
$
$
*CONSTRAINED_EXTRA_NODES_SET
$
$      pid      nsid
$#     pid      nsid     iflag     
   3000081   3000040         0
$
$
$
$
$
$
$$$$$$$$$$$$$$$ Begin SET_NODE Block $$$$$$$$$$$$$$$$$$$$$$$$$$$$$$$$$$$$$$$$$$$
$
$
*SET_NODE_LIST
$
$      sid       da1       da2       da3       da4
$#     sid       da1       da2       da3       da4    solver      
   3000040       0.0       0.0       0.0       0.0MECH
$
$     nid1      nid2      nid3      nid4      nid5      nid6      nid7      nid8
$#    nid1      nid2      nid3      nid4      nid5      nid6      nid7      nid8
   3002168         0         0         0         0         0         0         0
$
$
*CONSTRAINED_EXTRA_NODES_SET
$
$      pid      nsid
$#     pid      nsid     iflag     
   3000082   3000041         0
$
$
*SET_NODE_LIST
$
$      sid       da1       da2       da3       da4
$#     sid       da1       da2       da3       da4    solver      
   3000041       0.0       0.0       0.0       0.0MECH
$
$     nid1      nid2      nid3      nid4      nid5      nid6      nid7      nid8
$#    nid1      nid2      nid3      nid4      nid5      nid6      nid7      nid8
   3002167   3002170   3002173         0         0         0         0         0
$
$
*CONSTRAINED_EXTRA_NODES_SET
$
$      pid      nsid
$#     pid      nsid     iflag     
   3000083   3000042         0
$
$
*SET_NODE_LIST
$
$      sid       da1       da2       da3       da4
$#     sid       da1       da2       da3       da4    solver      
   3000042       0.0       0.0       0.0       0.0MECH
$
$     nid1      nid2      nid3      nid4      nid5      nid6      nid7      nid8
$#    nid1      nid2      nid3      nid4      nid5      nid6      nid7      nid8
   3000693   3000694   3000703   3000704   3000776   3000777   3000841   3000850
$
   3000914   3002164         0         0         0         0         0         0
$
$
*CONSTRAINED_EXTRA_NODES_SET
$
$      pid      nsid
$#     pid      nsid     iflag     
   3000084   3000043         0
$
$
*SET_NODE_LIST
$
$      sid       da1       da2       da3       da4
$#     sid       da1       da2       da3       da4    solver      
   3000043       0.0       0.0       0.0       0.0MECH
$
$     nid1      nid2      nid3      nid4      nid5      nid6      nid7      nid8
$#    nid1      nid2      nid3      nid4      nid5      nid6      nid7      nid8
   3002163   3002165   3002166   3002171   3002172         0         0         0
$
$
*CONSTRAINED_EXTRA_NODES_SET
$
$      pid      nsid
$#     pid      nsid     iflag     
   3000087   3000044         0
$
$
*SET_NODE_LIST
$
$      sid       da1       da2       da3       da4
$#     sid       da1       da2       da3       da4    solver      
   3000044       0.0       0.0       0.0       0.0MECH
$
$     nid1      nid2      nid3      nid4      nid5      nid6      nid7      nid8
$#    nid1      nid2      nid3      nid4      nid5      nid6      nid7      nid8
   3002174         0         0         0         0         0         0         0
$
$
$
$************** Begin CONSTRAINED RIGID BODIES & EXTRA NODES Block *************
$
$
$
$
$
$ The following Joint is between the Steering Rim and the Column.
$
*CONSTRAINED_JOINT_SPHERICAL_ID
$
$      jid                                                                 title
$#     jid                                                                 title
   3000037                                                                      
$
$       n1        n2        n3        n4        n5        n6       rps      damp
$#      n1        n2        n3        n4        n5        n6       rps      damp
   3002163   3002164         0         0         0         0       1.0       1.0
$
$
$
$ The following Joint is to simulate Column "up and down rotational motion".
$
*CONSTRAINED_JOINT_SPHERICAL_ID
$
$      jid                                                                 title
   3000038                                                                      
$
$       n1        n2        n3        n4        n5        n6       rps      damp
   3001564   3002168         0         0         0         0       1.0       1.0
$
$
$
$ The following is the "Joint Stiffness" between the Steering Rim and the Column.
$
*CONSTRAINED_JOINT_STIFFNESS_GENERALIZED
$
$     jsid      pida      pidb      cida      cidb       jid
$#    jsid      pida      pidb      cida      cidb       jid   
   3000022   3000083   3000084   3000036   3000036         0
$
$   lcidph     lcidt    lcidps   dlcidph    dlcidt   dlcidps
$#  lcidph     lcidt    lcidps   dlcidph    dlcidt   dlcidps       
         0   3000015   3000015         0         0         0
$
$     esph      fmph       est       fmt      esps      fmps
$#    esph      fmph       est       fmt      esps      fmps    
  500000.0       0.0  500000.0       0.0  500000.0       0.0
$
$    nsaph     psaph      nsat      psat     nsaps     psaps
$#   nsaph     psaph      nsat      psat     nsaps     psaps     
1.00000E-4-1.0000E-4     -20.0      20.01.00000E-4-1.0000E-4
$
$
$
$ The following is the "Joint Stiffness" for the Column Rotation.
$
*CONSTRAINED_JOINT_STIFFNESS_GENERALIZED
$
$     jsid      pida      pidb      cida      cidb       jid
$#    jsid      pida      pidb      cida      cidb       jid   
   3000023   3000081   3000082   3000037   3000037         0
$
$   lcidph     lcidt    lcidps   dlcidph    dlcidt   dlcidps
$#  lcidph     lcidt    lcidps   dlcidph    dlcidt   dlcidps       
         0   3000016         0         0         0         0
$
$     esph      fmph       est       fmt      esps      fmps
$#    esph      fmph       est       fmt      esps      fmps    
  500000.0       0.0  500000.0       0.0  500000.0       0.0
$
$    nsaph     psaph      nsat      psat     nsaps     psaps
$#   nsaph     psaph      nsat      psat     nsaps     psaps     
1.00000E-4-1.0000E-4      -5.0       1.01.00000E-4-1.0000E-4
$
$
$ The following constraints "merge" the major planes of the vehicle to just one
$ rigid part and that is Part-3000081. As a result, applying Prescribed_Motion
$ to just Part-3000081, applies it to the whole vehicle.
$
*CONSTRAINED_RIGID_BODIES
$
$     pidm      pids     iflag
$#    pidm      pids     iflag     
   3000081   3000085         0
   3000081   3000086         0
   3000081   3000095         0
   3000081   3000096         0
   3000081   3000098         0
   3000081   3000099         0
   3000081   3000100         0
$
$
$
$
$
*DAMPING_PART_MASS
$#     pid      lcid        sf      flag    
   3000093   3000018       1.0         0
$
*DAMPING_PART_MASS
$#     pid      lcid        sf      flag    
   3000094   3000018       1.0         0
$
$
$
$$$$$$$$$$$$$$$ End SET_NODE Block $$$$$$$$$$$$$$$$$$$$$$$$$$$$$$$$$$$$$$$$$$$$$
$
$
*SET_PART_LIST
$
$      sid       da1       da2       da3       da4
$#     sid       da1       da2       da3       da4    solver      
   3000042       0.0       0.0       0.0       0.0MECH
$#    pid1      pid2      pid3      pid4      pid5      pid6      pid7      pid8
   3000093   3000094         0         0         0         0         0         0
$
$
$
$$$$$$$$$$$$$$$ Begin ELEMENTS Block $$$$$$$$$$$$$$$$$$$$$$$$$$$$$$$$$$$$$$$$$$$
$
$
*ELEMENT_SHELL
$    eid     pid      n1      n2      n3      n4      n5      n6      n7      n8
$#   eid     pid      n1      n2      n3      n4      n5      n6      n7      n8
 3000001 3000093 3000273 3000369 3000278 3000278       0       0       0       0
 3000002 3000093 3000277 3000283 3000282 3000282       0       0       0       0
 3000003 3000093 3000282 3000290 3000289 3000289       0       0       0       0
 3000004 3000093 3000289 3000298 3000297 3000297       0       0       0       0
 3000005 3000093 3000297 3000307 3000306 3000306       0       0       0       0
 3000006 3000093 3000316 3000370 3000326 3000326       0       0       0       0
 3000007 3000093 3000380 3000374 3000371 3000371       0       0       0       0
 3000008 3000093 3000387 3000382 3000379 3000379       0       0       0       0
 3000009 3000093 3000395 3000389 3000387 3000387       0       0       0       0
 3000010 3000093 3000404 3000397 3000395 3000395       0       0       0       0
 3000011 3000093 3000414 3000406 3000404 3000404       0       0       0       0
 3000012 3000093 3000435 3000426 3000416 3000416       0       0       0       0
 3000013 3000093 3000465 3000461 3000458 3000458       0       0       0       0
 3000014 3000093 3000471 3000467 3000464 3000464       0       0       0       0
 3000015 3000093 3000478 3000473 3000471 3000471       0       0       0       0
 3000016 3000093 3000486 3000480 3000478 3000478       0       0       0       0
 3000017 3000093 3000495 3000488 3000486 3000486       0       0       0       0
 3000018 3000093 3000514 3000506 3000497 3000497       0       0       0       0
 3000019 3000093 3000545 3000548 3000552 3000552       0       0       0       0
 3000020 3000093 3000551 3000554 3000558 3000558       0       0       0       0
$ ... 1866 like lines cut
$
$
$
*ELEMENT_BEAM
$
$    eid     pid      n1      n2      n3     rt1     rr1     rt2     rr2   local
$#   eid     pid      n1      n2      n3     rt1     rr1     rt2     rr2   local
 3001834 3000092 3001235 3001564 3001565       0       0       0       0       2
$
$
*ELEMENT_DISCRETE
$
$    eid     pid      n1      n2     vid               s      pf          offset
$#   eid     pid      n1      n2     vid               s      pf          offset
 3001835 3000101 3001564 3001235       0             1.0       0             0.0
$
$
$
$$$$$$$$$$$$$$$ End ELEMENTS Block $$$$$$$$$$$$$$$$$$$$$$$$$$$$$$$$$$$$$$$$$$$$$
$
$
$
$************** Begin ACCELEROMETER Block **************************************
$
$
$
*ELEMENT_SEATBELT_ACCELEROMETER
$
$   sbacid      nid1      nid2      nid3     igrav    intopt
$#  sbacid      nid1      nid2      nid3     igrav    intopt      mass    
   3000001   3003092   3003117   3003118         1         1       0.0
$
$
$
$************** End ACCELEROMETER Block ****************************************
$
$
$
$
$
*NODE
$
$    nid               x               y               z      tc      rc
$#   nid               x               y               z      tc      rc  
 3000001         3200.53          -334.0        1121.107       0       0
 3000028         3224.78          -334.0        767.7482       0       0
 3000077        3085.659          -334.0        482.5539       0       0
 3000089        2677.894       -530.3931        510.8544       0       0
 3000103        2677.893       -137.6071        510.8549       0       0
 3000222        3102.774          -346.0        440.6363       0       0
 3000223        3102.774          -322.0        440.6363       0       0
 3000224        3094.531          -346.0        419.1639       0       0
 3000231        3166.489          -334.0        501.5921       0       0
 3000233         3093.35          -334.0         569.788       0       0
 3000235        3166.489       -234.0001        501.5921       0       0
 3000237        3217.564       -333.9974        1089.558       0       0
 3000239        3118.015       -333.9974        1080.079       0       0
 3000241        3217.564        -233.998        1089.558       0       0
 3000243        3285.848          -334.0        908.4229       0       0
 3000245        3186.299          -334.0        898.9404       0       0
 3000247        3285.848          -234.0        908.4229       0       0
 3000249        2577.973       -430.3925         477.968       0       0
 3000251         2511.06       -430.3925        552.2825       0       0
 3000253        2577.973       -330.3929         477.968       0       0
$ ... 1975 like lines cut
$
$
$
$
$
*END
